# CIF file
# This file was generated by FINDSYM
# Harold T. Stokes, Branton J. Campbell, Dorian M. Hatch
# Brigham Young University, Provo, Utah, USA
 
data_findsym-output
_audit_creation_method FINDSYM
 
_symmetry_space_group_name_H-M "C 1 m 1"
_symmetry_Int_Tables_number 8
 
_cell_length_a    8.43722
_cell_length_b    5.74848
_cell_length_c    12.64390
_cell_angle_alpha 90.00000
_cell_angle_beta  90.00581
_cell_angle_gamma 90.00000
 
loop_
_space_group_symop_id
_space_group_symop_operation_xyz
1 x,y,z
2 x,-y,z
3 x+1/2,y+1/2,z
4 x+1/2,-y+1/2,z
 
loop_
_atom_site_label
_atom_site_type_symbol
_atom_site_symmetry_multiplicity
_atom_site_Wyckoff_label
_atom_site_fract_x
_atom_site_fract_y
_atom_site_fract_z
_atom_site_occupancy
Fe1  Fe   2 a 0.23057  0.00000 0.16659  1.00000
Fe2  Fe   2 a 0.23056  0.00000 0.83330  1.00000
Fe3  Fe   4 b -0.01706 0.25609 0.49995  1.00000
Fe4  Fe   4 b 0.48022  0.25036 0.83352  1.00000
Fe5  Fe   4 b -0.01975 0.24965 0.16641  1.00000
Fe6  Fe   2 a 0.49205  0.00000 0.33263  1.00000
Fe7  Fe   2 a 0.49205  0.00000 0.66726  1.00000
Fe8  Fe   4 b 0.21024  0.24349 -0.00004 1.00000
Fe9  Fe   2 a 0.23948  0.00000 0.49992  1.00000
Fe10 Fe   4 b 0.24975  0.24383 0.33334  1.00000
Fe11 Fe   4 b 0.74971  0.25615 0.66650  1.00000
Fe12 Fe   2 a -0.03127 0.00000 -0.00003 1.00000
Ta1  Ta   2 a 0.73157  0.00000 0.49993  1.00000
Ta2  Ta   2 a 0.73019  0.00000 0.83318  1.00000
Ta3  Ta   2 a 0.73023  0.00000 0.16670  1.00000
Ta4  Ta   2 a 0.46065  0.00000 -0.00004 1.00000
Ta5  Ta   2 a 0.00021  0.00000 0.33389  1.00000
Ta6  Ta   2 a 0.00018  0.00000 0.66601  1.00000
 
