# CIF file
# This file was generated by FINDSYM
# Harold T. Stokes, Branton J. Campbell, Dorian M. Hatch
# Brigham Young University, Provo, Utah, USA
 
data_findsym-output
_audit_creation_method FINDSYM
 
_symmetry_space_group_name_H-M "P -1"
_symmetry_Int_Tables_number 2
 
_cell_length_a    4.39132
_cell_length_b    4.49620
_cell_length_c    4.88295
_cell_angle_alpha 68.72567
_cell_angle_beta  89.28488
_cell_angle_gamma 79.86976
 
loop_
_space_group_symop_id
_space_group_symop_operation_xyz
1 x,y,z
2 -x,-y,-z
 
loop_
_atom_site_label
_atom_site_type_symbol
_atom_site_symmetry_multiplicity
_atom_site_Wyckoff_label
_atom_site_fract_x
_atom_site_fract_y
_atom_site_fract_z
_atom_site_occupancy
Fe1 Fe   2 i 0.10115  0.22713 0.76026  1.00000
Fe2 Fe   2 i 0.41098  0.72817 0.57964  1.00000
Si1 Si   2 i -0.09691 0.76598 0.74074  1.00000
Si2 Si   2 i 0.59701  0.25099 -0.05809 1.00000
 
