# CIF file
# This file was generated by FINDSYM
# Harold T. Stokes, Branton J. Campbell, Dorian M. Hatch
# Brigham Young University, Provo, Utah, USA
 
data_findsym-output
_audit_creation_method FINDSYM
 
_symmetry_space_group_name_H-M "C 1 m 1"
_symmetry_Int_Tables_number 8
 
_cell_length_a    8.41969
_cell_length_b    2.70349
_cell_length_c    8.63940
_cell_angle_alpha 90.00000
_cell_angle_beta  115.77788
_cell_angle_gamma 90.00000
 
loop_
_space_group_symop_id
_space_group_symop_operation_xyz
1 x,y,z
2 x,-y,z
3 x+1/2,y+1/2,z
4 x+1/2,-y+1/2,z
 
loop_
_atom_site_label
_atom_site_type_symbol
_atom_site_symmetry_multiplicity
_atom_site_Wyckoff_label
_atom_site_fract_x
_atom_site_fract_y
_atom_site_fract_z
_atom_site_occupancy
Fe1 Fe   2 a 0.40600  0.00000 0.08254 1.00000
Fe2 Fe   2 a 0.12219  0.00000 0.61751 1.00000
Fe3 Fe   2 a 0.69877  0.00000 0.38611 1.00000
Fe4 Fe   2 a 0.59695  0.00000 0.88120 1.00000
Si1 Si   2 a -0.05490 0.00000 0.31733 1.00000
Si2 Si   2 a 0.15770  0.00000 0.13894 1.00000
Si3 Si   2 a 0.84824  0.00000 0.83952 1.00000
Si4 Si   2 a 0.39028  0.00000 0.59875 1.00000
 
