# CIF file created by FINDSYM, version 6.0

data_findsym-output
_audit_creation_method FINDSYM
 
_cell_length_a    2.5179900000
_cell_length_b    2.5179900000
_cell_length_c    3.5824800000
_cell_angle_alpha 90.0000000000
_cell_angle_beta  90.0000000000
_cell_angle_gamma 90.0000000000
_cell_volume      22.7139035102
 
_symmetry_space_group_name_H-M "P 4/m 2/m 2/m"
_symmetry_Int_Tables_number 123
_space_group.reference_setting '123:-P 4 2'
_space_group.transform_Pp_abc a,b,c;0,0,0
 
loop_
_space_group_symop_id
_space_group_symop_operation_xyz
1 x,y,z
2 x,-y,-z
3 -x,y,-z
4 -x,-y,z
5 -y,-x,-z
6 -y,x,z
7 y,-x,z
8 y,x,-z
9 -x,-y,-z
10 -x,y,z
11 x,-y,z
12 x,y,-z
13 y,x,z
14 y,-x,-z
15 -y,x,-z
16 -y,-x,z
 
loop_
_atom_site_label
_atom_site_type_symbol
_atom_site_symmetry_multiplicity
_atom_site_Wyckoff_label
_atom_site_fract_x
_atom_site_fract_y
_atom_site_fract_z
_atom_site_occupancy
_atom_site_fract_symmform
Fe1 Fe   1 a 0.00000 0.00000 0.00000 1.00000 0,0,0 
Ni1 Ni   1 d 0.50000 0.50000 0.50000 1.00000 0,0,0 
 
# end of cif