# CIF file
# This file was generated by FINDSYM
# Harold T. Stokes, Branton J. Campbell, Dorian M. Hatch
# Brigham Young University, Provo, Utah, USA
 
data_findsym-output
_audit_creation_method FINDSYM
 
_symmetry_space_group_name_H-M "P 1"
_symmetry_Int_Tables_number 1
 
_cell_length_a    4.80992
_cell_length_b    4.81217
_cell_length_c    7.57438
_cell_angle_alpha 99.14521
_cell_angle_beta  99.05524
_cell_angle_gamma 116.78276
 
loop_
_space_group_symop_id
_space_group_symop_operation_xyz
1 x,y,z
 
loop_
_atom_site_label
_atom_site_type_symbol
_atom_site_symmetry_multiplicity
_atom_site_Wyckoff_label
_atom_site_fract_x
_atom_site_fract_y
_atom_site_fract_z
_atom_site_occupancy
Co1 Co   1 a -0.00306 0.50539  0.50597 1.00000
Co2 Co   1 a 0.00027  -0.00018 0.00014 1.00000
Fe1 Fe   1 a 0.49083  0.50964  0.00033 1.00000
Fe2 Fe   1 a 0.49537  0.00395  0.49363 1.00000
Fe3 Fe   1 a 0.51370  0.51230  0.33971 1.00000
Fe4 Fe   1 a 0.51184  0.01890  0.17586 1.00000
Fe5 Fe   1 a -0.01876 0.48769  0.82447 1.00000
Fe6 Fe   1 a -0.02117 -0.00373 0.66024 1.00000
Fe7 Fe   1 a 0.48796  0.48769  0.66064 1.00000
Fe8 Fe   1 a 0.00381  0.02262  0.33995 1.00000
Ta1 Ta   1 a 0.00913  0.51794  0.16957 1.00000
Ta2 Ta   1 a 0.48241  -0.00888 0.83109 1.00000
 
