# CIF file
# This file was generated by FINDSYM
# Harold T. Stokes, Branton J. Campbell, Dorian M. Hatch
# Brigham Young University, Provo, Utah, USA
 
data_findsym-output
_audit_creation_method FINDSYM
 
_symmetry_space_group_name_H-M "P 1 m 1"
_symmetry_Int_Tables_number 6
 
_cell_length_a    5.05108
_cell_length_b    4.15389
_cell_length_c    7.51562
_cell_angle_alpha 90.00000
_cell_angle_beta  108.75347
_cell_angle_gamma 90.00000
 
loop_
_space_group_symop_id
_space_group_symop_operation_xyz
1 x,y,z
2 x,-y,z
 
loop_
_atom_site_label
_atom_site_type_symbol
_atom_site_symmetry_multiplicity
_atom_site_Wyckoff_label
_atom_site_fract_x
_atom_site_fract_y
_atom_site_fract_z
_atom_site_occupancy
Co1 Co   1 b 0.60678  0.50000 0.83821  1.00000
Co2 Co   1 a 0.00046  0.00000 -0.00013 1.00000
Fe1 Fe   1 a 0.50925  0.00000 0.00124  1.00000
Fe2 Fe   1 b 0.43238  0.50000 0.16671  1.00000
Fe3 Fe   1 b 0.76076  0.50000 0.48510  1.00000
Fe4 Fe   1 b -0.07143 0.50000 0.16439  1.00000
Fe5 Fe   1 b 0.25369  0.50000 0.48544  1.00000
Fe6 Fe   1 a 0.32808  0.00000 0.31690  1.00000
Fe7 Fe   1 a 0.83347  0.00000 0.32219  1.00000
Fe8 Fe   1 a 0.16137  0.00000 0.65155  1.00000
Ta1 Ta   1 a 0.65564  0.00000 0.65273  1.00000
Ta2 Ta   1 b 0.10952  0.50000 0.83033  1.00000
 
