# CIF file
# This file was generated by FINDSYM
# Harold T. Stokes, Branton J. Campbell, Dorian M. Hatch
# Brigham Young University, Provo, Utah, USA
 
data_findsym-output
_audit_creation_method FINDSYM
 
_symmetry_space_group_name_H-M "P 1 m 1"
_symmetry_Int_Tables_number 6
 
_cell_length_a    5.02973
_cell_length_b    4.01199
_cell_length_c    7.31797
_cell_angle_alpha 90.00000
_cell_angle_beta  95.22604
_cell_angle_gamma 90.00000
 
loop_
_space_group_symop_id
_space_group_symop_operation_xyz
1 x,y,z
2 x,-y,z
 
loop_
_atom_site_label
_atom_site_type_symbol
_atom_site_symmetry_multiplicity
_atom_site_Wyckoff_label
_atom_site_fract_x
_atom_site_fract_y
_atom_site_fract_z
_atom_site_occupancy
Co1 Co   1 b 0.79418  0.50000 0.19455 1.00000
Co2 Co   1 a -0.00015 0.00000 0.00021 1.00000
Fe1 Fe   1 a 0.64289  0.00000 0.34335 1.00000
Fe2 Fe   1 b 0.49286  0.50000 0.50451 1.00000
Fe3 Fe   1 a 0.13683  0.00000 0.34678 1.00000
Fe4 Fe   1 a 0.49926  0.00000 0.00726 1.00000
Fe5 Fe   1 b 0.19452  0.50000 0.81946 1.00000
Fe6 Fe   1 a 0.34505  0.00000 0.66721 1.00000
Fe7 Fe   1 a 0.84846  0.00000 0.66134 1.00000
Fe8 Fe   1 b -0.00434 0.50000 0.50704 1.00000
Ta1 Ta   1 b 0.69860  0.50000 0.84693 1.00000
Ta2 Ta   1 b 0.28928  0.50000 0.16352 1.00000
 
