# CIF file
# This file was generated by FINDSYM
# Harold T. Stokes, Branton J. Campbell, Dorian M. Hatch
# Brigham Young University, Provo, Utah, USA
 
data_findsym-output
_audit_creation_method FINDSYM
 
_symmetry_space_group_name_H-M "P 1"
_symmetry_Int_Tables_number 1
 
_cell_length_a    4.44567
_cell_length_b    4.74173
_cell_length_c    7.94909
_cell_angle_alpha 89.77270
_cell_angle_beta  89.63918
_cell_angle_gamma 62.05025
 
loop_
_space_group_symop_id
_space_group_symop_operation_xyz
1 x,y,z
 
loop_
_atom_site_label
_atom_site_type_symbol
_atom_site_symmetry_multiplicity
_atom_site_Wyckoff_label
_atom_site_fract_x
_atom_site_fract_y
_atom_site_fract_z
_atom_site_occupancy
Co1 Co   1 a 0.51731 -0.01912 0.23844  1.00000
Co2 Co   1 a 0.00321 0.00008  0.00055  1.00000
Fe1 Fe   1 a 0.34461 0.31945  0.50021  1.00000
Fe2 Fe   1 a 0.84540 0.81843  0.49871  1.00000
Fe3 Fe   1 a 0.17964 0.65536  0.23643  1.00000
Fe4 Fe   1 a 0.34488 0.81856  0.49852  1.00000
Fe5 Fe   1 a 0.17308 0.65632  0.76376  1.00000
Fe6 Fe   1 a 0.68546 0.63567  0.00185  1.00000
Fe7 Fe   1 a 0.34611 0.31404  -0.00045 1.00000
Fe8 Fe   1 a 0.51232 -0.02275 0.76080  1.00000
Ta1 Ta   1 a 0.84893 0.31594  0.30142  1.00000
Ta2 Ta   1 a 0.84328 0.31704  0.69837  1.00000
 
