# CIF file
# This file was generated by FINDSYM
# Harold T. Stokes, Branton J. Campbell, Dorian M. Hatch
# Brigham Young University, Provo, Utah, USA
 
data_findsym-output
_audit_creation_method FINDSYM
 
_symmetry_space_group_name_H-M "C 1 m 1"
_symmetry_Int_Tables_number 8
 
_cell_length_a    8.28999
_cell_length_b    5.80005
_cell_length_c    6.57012
_cell_angle_alpha 90.00000
_cell_angle_beta  109.77705
_cell_angle_gamma 90.00000
 
loop_
_space_group_symop_id
_space_group_symop_operation_xyz
1 x,y,z
2 x,-y,z
3 x+1/2,y+1/2,z
4 x+1/2,-y+1/2,z
 
loop_
_atom_site_label
_atom_site_type_symbol
_atom_site_symmetry_multiplicity
_atom_site_Wyckoff_label
_atom_site_fract_x
_atom_site_fract_y
_atom_site_fract_z
_atom_site_occupancy
Co1 Co   4 b 0.74642  0.25272 -0.00008 1.00000
Fe1 Fe   2 a 0.33563  0.00000 0.33043  1.00000
Fe2 Fe   2 a 0.16767  0.00000 0.65601  1.00000
Fe3 Fe   4 b 0.08331  0.23700 0.32387  1.00000
Fe4 Fe   4 b 0.42134  0.25206 0.65400  1.00000
Fe5 Fe   2 a -0.00087 0.00000 -0.00772 1.00000
Fe6 Fe   2 a 0.83259  0.00000 0.32488  1.00000
Ta1 Ta   2 a 0.67154  0.00000 0.65329  1.00000
Ta2 Ta   2 a 0.49438  0.00000 -0.00364 1.00000
 
