# CIF file
# This file was generated by FINDSYM
# Harold T. Stokes, Branton J. Campbell, Dorian M. Hatch
# Brigham Young University, Provo, Utah, USA
 
data_findsym-output
_audit_creation_method FINDSYM
 
_symmetry_space_group_name_H-M "P 1 m 1"
_symmetry_Int_Tables_number 6
 
_cell_length_a    5.04781
_cell_length_b    4.04484
_cell_length_c    7.25265
_cell_angle_alpha 90.00000
_cell_angle_beta  92.69528
_cell_angle_gamma 90.00000
 
loop_
_space_group_symop_id
_space_group_symop_operation_xyz
1 x,y,z
2 x,-y,z
 
loop_
_atom_site_label
_atom_site_type_symbol
_atom_site_symmetry_multiplicity
_atom_site_Wyckoff_label
_atom_site_fract_x
_atom_site_fract_y
_atom_site_fract_z
_atom_site_occupancy
Co1 Co   1 b 0.16714  0.50000 0.83118  1.00000
Co2 Co   1 a 0.00029  0.00000 -0.00028 1.00000
Fe1 Fe   1 b 0.82293  0.50000 0.17384  1.00000
Fe2 Fe   1 b 0.32290  0.50000 0.17003  1.00000
Fe3 Fe   1 b 0.67989  0.50000 0.83189  1.00000
Fe4 Fe   1 b 0.48899  0.50000 0.50884  1.00000
Fe5 Fe   1 b -0.02079 0.50000 0.51489  1.00000
Fe6 Fe   1 a 0.82462  0.00000 0.67200  1.00000
Fe7 Fe   1 a 0.64689  0.00000 0.34533  1.00000
Fe8 Fe   1 a 0.32616  0.00000 0.67359  1.00000
Ta1 Ta   1 a 0.14593  0.00000 0.34273  1.00000
Ta2 Ta   1 a 0.50235  0.00000 0.00186  1.00000
 
