# CIF file
# This file was generated by FINDSYM
# Harold T. Stokes, Branton J. Campbell, Dorian M. Hatch
# Brigham Young University, Provo, Utah, USA
 
data_findsym-output
_audit_creation_method FINDSYM
 
_symmetry_space_group_name_H-M "C 1 m 1"
_symmetry_Int_Tables_number 8
 
_cell_length_a    8.20171
_cell_length_b    4.70244
_cell_length_c    7.67780
_cell_angle_alpha 90.00000
_cell_angle_beta  90.15360
_cell_angle_gamma 90.00000
 
loop_
_space_group_symop_id
_space_group_symop_operation_xyz
1 x,y,z
2 x,-y,z
3 x+1/2,y+1/2,z
4 x+1/2,-y+1/2,z
 
loop_
_atom_site_label
_atom_site_type_symbol
_atom_site_symmetry_multiplicity
_atom_site_Wyckoff_label
_atom_site_fract_x
_atom_site_fract_y
_atom_site_fract_z
_atom_site_occupancy
Co1 Co   2 a 0.17174  0.00000 0.75194  1.00000
Co2 Co   2 a -0.00018 0.00000 -0.00009 1.00000
Fe1 Fe   2 a 0.17124  0.00000 0.25005  1.00000
Fe2 Fe   4 b 0.58694  0.24554 0.49877  1.00000
Fe3 Fe   4 b 0.25568  0.25494 -0.00027 1.00000
Fe4 Fe   2 a 0.34185  0.00000 0.49866  1.00000
Fe5 Fe   2 a 0.50641  0.00000 0.80499  1.00000
Fe6 Fe   2 a 0.83633  0.00000 0.31202  1.00000
Ta1 Ta   2 a 0.50380  0.00000 0.18257  1.00000
Ta2 Ta   2 a 0.83905  0.00000 0.68654  1.00000
 
