# CIF file
# This file was generated by FINDSYM
# Harold T. Stokes, Branton J. Campbell, Dorian M. Hatch
# Brigham Young University, Provo, Utah, USA
 
data_findsym-output
_audit_creation_method FINDSYM
 
_symmetry_space_group_name_H-M "P 1 21/m 1"
_symmetry_Int_Tables_number 11
 
_cell_length_a    5.03373
_cell_length_b    4.14852
_cell_length_c    7.53764
_cell_angle_alpha 90.00000
_cell_angle_beta  108.55584
_cell_angle_gamma 90.00000
 
loop_
_space_group_symop_id
_space_group_symop_operation_xyz
1 x,y,z
2 -x,y+1/2,-z
3 -x,-y,-z
4 x,-y+1/2,z
 
loop_
_atom_site_label
_atom_site_type_symbol
_atom_site_symmetry_multiplicity
_atom_site_Wyckoff_label
_atom_site_fract_x
_atom_site_fract_y
_atom_site_fract_z
_atom_site_occupancy
Co1 Co   2 e 0.37791 0.25000 0.24125  1.00000
Fe1 Fe   2 e 0.22247 0.25000 0.59340  1.00000
Fe2 Fe   2 e 0.54723 0.25000 -0.07854 1.00000
Fe3 Fe   2 e 0.05251 0.25000 -0.07431 1.00000
Fe4 Fe   2 e 0.87130 0.25000 0.24342  1.00000
Ta1 Ta   2 e 0.72639 0.25000 0.58873  1.00000
 
