# CIF file
# This file was generated by FINDSYM
# Harold T. Stokes, Branton J. Campbell, Dorian M. Hatch
# Brigham Young University, Provo, Utah, USA
 
data_findsym-output
_audit_creation_method FINDSYM
 
_symmetry_space_group_name_H-M "C 1 m 1"
_symmetry_Int_Tables_number 8
 
_cell_length_a    8.16471
_cell_length_b    4.66432
_cell_length_c    7.62511
_cell_angle_alpha 90.00000
_cell_angle_beta  90.07284
_cell_angle_gamma 90.00000
 
loop_
_space_group_symop_id
_space_group_symop_operation_xyz
1 x,y,z
2 x,-y,z
3 x+1/2,y+1/2,z
4 x+1/2,-y+1/2,z
 
loop_
_atom_site_label
_atom_site_type_symbol
_atom_site_symmetry_multiplicity
_atom_site_Wyckoff_label
_atom_site_fract_x
_atom_site_fract_y
_atom_site_fract_z
_atom_site_occupancy
Co1 Co   2 a 0.49350  0.00000 0.18862  1.00000
Co2 Co   2 a -0.00065 0.00000 -0.00029 1.00000
Fe1 Fe   4 b 0.74480  0.25447 0.00096  1.00000
Fe2 Fe   4 b 0.41301  0.24592 0.49932  1.00000
Fe3 Fe   2 a 0.65861  0.00000 0.49894  1.00000
Fe4 Fe   2 a 0.16358  0.00000 0.69053  1.00000
Fe5 Fe   2 a 0.82858  0.00000 0.24715  1.00000
Fe6 Fe   2 a 0.82727  0.00000 0.74969  1.00000
Ta1 Ta   2 a 0.16032  0.00000 0.31139  1.00000
Ta2 Ta   2 a 0.49597  0.00000 0.81737  1.00000
 
