# CIF file
# This file was generated by FINDSYM
# Harold T. Stokes, Branton J. Campbell, Dorian M. Hatch
# Brigham Young University, Provo, Utah, USA
 
data_findsym-output
_audit_creation_method FINDSYM
 
_symmetry_space_group_name_H-M "C 1 2/m 1"
_symmetry_Int_Tables_number 12
 
_cell_length_a    8.26309
_cell_length_b    5.78914
_cell_length_c    6.59048
_cell_angle_alpha 90.00000
_cell_angle_beta  109.54968
_cell_angle_gamma 90.00000
 
loop_
_space_group_symop_id
_space_group_symop_operation_xyz
1 x,y,z
2 -x,y,-z
3 -x,-y,-z
4 x,-y,z
5 x+1/2,y+1/2,z
6 -x+1/2,y+1/2,-z
7 -x+1/2,-y+1/2,-z
8 x+1/2,-y+1/2,z
 
loop_
_atom_site_label
_atom_site_type_symbol
_atom_site_symmetry_multiplicity
_atom_site_Wyckoff_label
_atom_site_fract_x
_atom_site_fract_y
_atom_site_fract_z
_atom_site_occupancy
Co1 Co   4 g 0.00000  0.26589 0.00000  1.00000
Fe1 Fe   8 j 0.33671  0.24834 0.32587  1.00000
Fe2 Fe   4 i 0.24939  0.00000 -0.00146 1.00000
Fe3 Fe   4 i 0.58568  0.00000 0.33739  1.00000
Ta1 Ta   4 i -0.08852 0.00000 0.66997  1.00000
 
