# CIF file
# This file was generated by FINDSYM
# Harold T. Stokes, Branton J. Campbell, Dorian M. Hatch
# Brigham Young University, Provo, Utah, USA
 
data_findsym-output
_audit_creation_method FINDSYM
 
_symmetry_space_group_name_H-M "P 3 m 1"
_symmetry_Int_Tables_number 156
 
_cell_length_a    4.11468
_cell_length_b    4.11468
_cell_length_c    10.11581
_cell_angle_alpha 90.00000
_cell_angle_beta  90.00000
_cell_angle_gamma 120.00000
 
loop_
_space_group_symop_id
_space_group_symop_operation_xyz
1 x,y,z
2 -y,x-y,z
3 -x+y,-x,z
4 -x+y,y,z
5 -y,-x,z
6 x,x-y,z
 
loop_
_atom_site_label
_atom_site_type_symbol
_atom_site_symmetry_multiplicity
_atom_site_Wyckoff_label
_atom_site_fract_x
_atom_site_fract_y
_atom_site_fract_z
_atom_site_occupancy
Co1 Co   1 a 0.00000 0.00000 0.50636  1.00000
Co2 Co   1 a 0.00000 0.00000 0.00002  1.00000
Fe1 Fe   1 b 0.33333 0.66667 0.08525  1.00000
Fe2 Fe   1 c 0.66667 0.33333 0.42238  1.00000
Fe3 Fe   1 b 0.33333 0.66667 0.58371  1.00000
Fe4 Fe   1 c 0.66667 0.33333 0.66180  1.00000
Fe5 Fe   1 a 0.00000 0.00000 0.74473  1.00000
Fe6 Fe   1 c 0.66667 0.33333 0.16625  1.00000
Fe7 Fe   1 b 0.33333 0.66667 0.82711  1.00000
Fe8 Fe   1 b 0.33333 0.66667 0.34066  1.00000
Ta1 Ta   1 a 0.00000 0.00000 0.25365  1.00000
Ta2 Ta   1 c 0.66667 0.33333 -0.08679 1.00000
 
