# CIF file
# This file was generated by FINDSYM
# Harold T. Stokes, Branton J. Campbell, Dorian M. Hatch
# Brigham Young University, Provo, Utah, USA
 
data_findsym-output
_audit_creation_method FINDSYM
 
_symmetry_space_group_name_H-M "P 1"
_symmetry_Int_Tables_number 1
 
_cell_length_a    4.85165
_cell_length_b    4.85307
_cell_length_c    7.12235
_cell_angle_alpha 90.08786
_cell_angle_beta  90.22155
_cell_angle_gamma 117.14169
 
loop_
_space_group_symop_id
_space_group_symop_operation_xyz
1 x,y,z
 
loop_
_atom_site_label
_atom_site_type_symbol
_atom_site_symmetry_multiplicity
_atom_site_Wyckoff_label
_atom_site_fract_x
_atom_site_fract_y
_atom_site_fract_z
_atom_site_occupancy
Co1 Co   1 a 0.66541  0.67979  0.66241  1.00000
Co2 Co   1 a -0.00015 -0.00066 -0.00014 1.00000
Fe1 Fe   1 a 0.83283  0.82776  0.32859  1.00000
Fe2 Fe   1 a 0.24337  0.75359  0.50083  1.00000
Fe3 Fe   1 a 0.31933  0.33396  0.33922  1.00000
Fe4 Fe   1 a -0.07585 0.42034  0.16172  1.00000
Fe5 Fe   1 a 0.16975  0.16509  0.67150  1.00000
Fe6 Fe   1 a 0.41186  -0.07538 0.17186  1.00000
Fe7 Fe   1 a 0.07420  0.58619  0.82895  1.00000
Fe8 Fe   1 a 0.57728  0.07430  0.83979  1.00000
Ta1 Ta   1 a 0.49754  0.50188  0.00092  1.00000
Ta2 Ta   1 a 0.74571  0.25110  0.50073  1.00000
 
