# CIF file
# This file was generated by FINDSYM
# Harold T. Stokes, Branton J. Campbell, Dorian M. Hatch
# Brigham Young University, Provo, Utah, USA
 
data_findsym-output
_audit_creation_method FINDSYM
 
_symmetry_space_group_name_H-M "C 1 m 1"
_symmetry_Int_Tables_number 8
 
_cell_length_a    13.62068
_cell_length_b    4.10336
_cell_length_c    5.85501
_cell_angle_alpha 90.00000
_cell_angle_beta  115.36233
_cell_angle_gamma 90.00000
 
loop_
_space_group_symop_id
_space_group_symop_operation_xyz
1 x,y,z
2 x,-y,z
3 x+1/2,y+1/2,z
4 x+1/2,-y+1/2,z
 
loop_
_atom_site_label
_atom_site_type_symbol
_atom_site_symmetry_multiplicity
_atom_site_Wyckoff_label
_atom_site_fract_x
_atom_site_fract_y
_atom_site_fract_z
_atom_site_occupancy
Co1 Co   2 a 0.50479  0.00000 0.25818  1.00000
Co2 Co   2 a -0.00021 0.00000 -0.00014 1.00000
Fe1 Fe   2 a 0.82889  0.00000 0.57825  1.00000
Fe2 Fe   2 a 0.33236  0.00000 0.34000  1.00000
Fe3 Fe   2 a 0.66736  0.00000 0.67603  1.00000
Fe4 Fe   2 a 0.66655  0.00000 0.17385  1.00000
Fe5 Fe   2 a 0.16537  0.00000 0.40955  1.00000
Fe6 Fe   2 a 0.82973  0.00000 0.09267  1.00000
Fe7 Fe   2 a 0.16629  0.00000 -0.06544 1.00000
Fe8 Fe   2 a 0.50441  0.00000 0.77109  1.00000
Ta1 Ta   2 a 0.33322  0.00000 0.83996  1.00000
Ta2 Ta   2 a 0.00050  0.00000 0.50517  1.00000
 
