# CIF file
# This file was generated by FINDSYM
# Harold T. Stokes, Branton J. Campbell, Dorian M. Hatch
# Brigham Young University, Provo, Utah, USA
 
data_findsym-output
_audit_creation_method FINDSYM
 
_symmetry_space_group_name_H-M "I m m 2"
_symmetry_Int_Tables_number 44
 
_cell_length_a    4.06547
_cell_length_b    4.05361
_cell_length_c    17.86962
_cell_angle_alpha 90.00000
_cell_angle_beta  90.00000
_cell_angle_gamma 90.00000
 
loop_
_space_group_symop_id
_space_group_symop_operation_xyz
1 x,y,z
2 -x,-y,z
3 -x,y,z
4 x,-y,z
5 x+1/2,y+1/2,z+1/2
6 -x+1/2,-y+1/2,z+1/2
7 -x+1/2,y+1/2,z+1/2
8 x+1/2,-y+1/2,z+1/2
 
loop_
_atom_site_label
_atom_site_type_symbol
_atom_site_symmetry_multiplicity
_atom_site_Wyckoff_label
_atom_site_fract_x
_atom_site_fract_y
_atom_site_fract_z
_atom_site_occupancy
Co1 Co   2 b 0.00000 0.50000 0.53673  1.00000
Co2 Co   2 a 0.00000 0.00000 0.11848  1.00000
Fe1 Fe   2 a 0.00000 0.00000 0.78886  1.00000
Fe2 Fe   2 a 0.00000 0.00000 0.46176  1.00000
Fe3 Fe   2 b 0.00000 0.50000 0.37540  1.00000
Fe4 Fe   2 a 0.00000 0.00000 -0.03716 1.00000
Fe5 Fe   2 b 0.00000 0.50000 0.20349  1.00000
Fe6 Fe   2 b 0.00000 0.50000 0.04051  1.00000
Fe7 Fe   2 a 0.00000 0.00000 0.61711  1.00000
Fe8 Fe   2 a 0.00000 0.00000 0.28903  1.00000
Ta1 Ta   2 b 0.00000 0.50000 0.87584  1.00000
Ta2 Ta   2 b 0.00000 0.50000 0.70199  1.00000
 
