# CIF file
# This file was generated by FINDSYM
# Harold T. Stokes, Branton J. Campbell, Dorian M. Hatch
# Brigham Young University, Provo, Utah, USA
 
data_findsym-output
_audit_creation_method FINDSYM
 
_symmetry_space_group_name_H-M "C 1 2 1"
_symmetry_Int_Tables_number 5
 
_cell_length_a    6.65926
_cell_length_b    6.64759
_cell_length_c    6.65261
_cell_angle_alpha 90.00000
_cell_angle_beta  90.54393
_cell_angle_gamma 90.00000
 
loop_
_space_group_symop_id
_space_group_symop_operation_xyz
1 x,y,z
2 -x,y,-z
3 x+1/2,y+1/2,z
4 -x+1/2,y+1/2,-z
 
loop_
_atom_site_label
_atom_site_type_symbol
_atom_site_symmetry_multiplicity
_atom_site_Wyckoff_label
_atom_site_fract_x
_atom_site_fract_y
_atom_site_fract_z
_atom_site_occupancy
Co1 Co   4 c 0.12642 0.49986  0.87501 1.00000
Fe1 Fe   4 c 0.87704 0.25123  0.87467 1.00000
Fe2 Fe   4 c 0.25066 0.12242  0.75082 1.00000
Fe3 Fe   4 c 0.87632 -0.00005 0.62407 1.00000
Fe4 Fe   4 c 0.37454 0.25120  0.37617 1.00000
Ta1 Ta   2 a 0.00000 0.87231  0.00000 1.00000
Ta2 Ta   2 b 0.00000 0.37564  0.50000 1.00000
 
