# CIF file
# This file was generated by FINDSYM
# Harold T. Stokes, Branton J. Campbell, Dorian M. Hatch
# Brigham Young University, Provo, Utah, USA
 
data_findsym-output
_audit_creation_method FINDSYM
 
_symmetry_space_group_name_H-M "C 1 c 1"
_symmetry_Int_Tables_number 9
 
_cell_length_a    4.74227
_cell_length_b    8.16730
_cell_length_c    7.64761
_cell_angle_alpha 90.00000
_cell_angle_beta  90.07124
_cell_angle_gamma 90.00000
 
loop_
_space_group_symop_id
_space_group_symop_operation_xyz
1 x,y,z
2 x,-y,z+1/2
3 x+1/2,y+1/2,z
4 x+1/2,-y+1/2,z+1/2
 
loop_
_atom_site_label
_atom_site_type_symbol
_atom_site_symmetry_multiplicity
_atom_site_Wyckoff_label
_atom_site_fract_x
_atom_site_fract_y
_atom_site_fract_z
_atom_site_occupancy
Co1 Co   4 a 0.00308 0.41446 0.50046 1.00000
Fe1 Fe   4 a 0.25544 0.49995 0.25237 1.00000
Fe2 Fe   4 a 0.01493 0.08534 0.00071 1.00000
Fe3 Fe   4 a 0.25929 0.33066 0.00055 1.00000
Fe4 Fe   4 a 0.75559 0.33207 0.80876 1.00000
Ta1 Ta   4 a 0.75708 0.33333 0.18479 1.00000
 
