# CIF file
# This file was generated by FINDSYM
# Harold T. Stokes, Branton J. Campbell, Dorian M. Hatch
# Brigham Young University, Provo, Utah, USA
 
data_findsym-output
_audit_creation_method FINDSYM
 
_symmetry_space_group_name_H-M "I m m 2"
_symmetry_Int_Tables_number 44
 
_cell_length_a    4.03615
_cell_length_b    3.03986
_cell_length_c    24.30394
_cell_angle_alpha 90.00000
_cell_angle_beta  90.00000
_cell_angle_gamma 90.00000
 
loop_
_space_group_symop_id
_space_group_symop_operation_xyz
1 x,y,z
2 -x,-y,z
3 -x,y,z
4 x,-y,z
5 x+1/2,y+1/2,z+1/2
6 -x+1/2,-y+1/2,z+1/2
7 -x+1/2,y+1/2,z+1/2
8 x+1/2,-y+1/2,z+1/2
 
loop_
_atom_site_label
_atom_site_type_symbol
_atom_site_symmetry_multiplicity
_atom_site_Wyckoff_label
_atom_site_fract_x
_atom_site_fract_y
_atom_site_fract_z
_atom_site_occupancy
Co1 Co   2 a 0.00000 0.00000 0.77591  1.00000
Co2 Co   2 b 0.00000 0.50000 0.03283  1.00000
Fe1 Fe   2 b 0.00000 0.50000 0.69182  1.00000
Fe2 Fe   2 b 0.00000 0.50000 0.85962  1.00000
Fe3 Fe   2 b 0.00000 0.50000 0.36372  1.00000
Fe4 Fe   2 b 0.00000 0.50000 0.53234  1.00000
Fe5 Fe   2 a 0.00000 0.00000 0.11273  1.00000
Fe6 Fe   2 a 0.00000 0.00000 0.61209  1.00000
Fe7 Fe   2 b 0.00000 0.50000 0.19249  1.00000
Fe8 Fe   2 a 0.00000 0.00000 0.44802  1.00000
Ta1 Ta   2 a 0.00000 0.00000 -0.05324 1.00000
Ta2 Ta   2 a 0.00000 0.00000 0.27674  1.00000
 
