# CIF file
# This file was generated by FINDSYM
# Harold T. Stokes, Branton J. Campbell, Dorian M. Hatch
# Brigham Young University, Provo, Utah, USA
 
data_findsym-output
_audit_creation_method FINDSYM
 
_symmetry_space_group_name_H-M "C 1 m 1"
_symmetry_Int_Tables_number 8
 
_cell_length_a    8.68843
_cell_length_b    4.08046
_cell_length_c    5.83784
_cell_angle_alpha 90.00000
_cell_angle_beta  109.93227
_cell_angle_gamma 90.00000
 
loop_
_space_group_symop_id
_space_group_symop_operation_xyz
1 x,y,z
2 x,-y,z
3 x+1/2,y+1/2,z
4 x+1/2,-y+1/2,z
 
loop_
_atom_site_label
_atom_site_type_symbol
_atom_site_symmetry_multiplicity
_atom_site_Wyckoff_label
_atom_site_fract_x
_atom_site_fract_y
_atom_site_fract_z
_atom_site_occupancy
Co1 Co   2 a 0.00019  0.00000 0.00072 1.00000
Fe1 Fe   2 a 0.75019  0.00000 0.13108 1.00000
Fe2 Fe   2 a 0.24370  0.00000 0.39212 1.00000
Fe3 Fe   2 a 0.75024  0.00000 0.64499 1.00000
Fe4 Fe   2 a 0.49791  0.00000 0.76166 1.00000
Fe5 Fe   2 a 0.24437  0.00000 0.87997 1.00000
Fe6 Fe   2 a -0.00593 0.00000 0.52166 1.00000
Ta1 Ta   2 a 0.49685  0.00000 0.26192 1.00000
 
