# CIF file
# This file was generated by FINDSYM
# Harold T. Stokes, Branton J. Campbell, Dorian M. Hatch
# Brigham Young University, Provo, Utah, USA
 
data_findsym-output
_audit_creation_method FINDSYM
 
_symmetry_space_group_name_H-M "P 1"
_symmetry_Int_Tables_number 1
 
_cell_length_a    5.80976
_cell_length_b    5.81001
_cell_length_c    7.06081
_cell_angle_alpha 65.71059
_cell_angle_beta  65.76402
_cell_angle_gamma 89.99662
 
loop_
_space_group_symop_id
_space_group_symop_operation_xyz
1 x,y,z
 
loop_
_atom_site_label
_atom_site_type_symbol
_atom_site_symmetry_multiplicity
_atom_site_Wyckoff_label
_atom_site_fract_x
_atom_site_fract_y
_atom_site_fract_z
_atom_site_occupancy
Co1  Co   1 a 0.87389  0.36287  0.74889  1.00000
Co2  Co   1 a -0.00005 -0.00031 0.00024  1.00000
Fe1  Fe   1 a 0.76219  0.23673  0.49996  1.00000
Fe2  Fe   1 a 0.23657  0.73590  0.50009  1.00000
Fe3  Fe   1 a 0.50090  0.00007  -0.00133 1.00000
Fe4  Fe   1 a -0.00072 0.47336  -0.00129 1.00000
Fe5  Fe   1 a 0.23563  0.23661  0.50180  1.00000
Fe6  Fe   1 a 0.76266  0.73626  0.49953  1.00000
Fe7  Fe   1 a 0.12486  0.11182  0.24950  1.00000
Fe8  Fe   1 a 0.50011  0.47430  -0.00082 1.00000
Fe9  Fe   1 a 0.37711  0.36367  0.74591  1.00000
Fe10 Fe   1 a 0.87308  0.85975  0.75288  1.00000
Fe11 Fe   1 a 0.12627  0.61249  0.24644  1.00000
Fe12 Fe   1 a 0.62182  0.11018  0.25316  1.00000
Ta1  Ta   1 a 0.62420  0.61145  0.24970  1.00000
Ta2  Ta   1 a 0.37497  0.86143  0.74934  1.00000
 
