# CIF file
# This file was generated by FINDSYM
# Harold T. Stokes, Branton J. Campbell, Dorian M. Hatch
# Brigham Young University, Provo, Utah, USA
 
data_findsym-output
_audit_creation_method FINDSYM
 
_symmetry_space_group_name_H-M "P -1"
_symmetry_Int_Tables_number 2
 
_cell_length_a    4.81764
_cell_length_b    5.76930
_cell_length_c    7.50473
_cell_angle_alpha 100.70963
_cell_angle_beta  93.52363
_cell_angle_gamma 107.46014
 
loop_
_space_group_symop_id
_space_group_symop_operation_xyz
1 x,y,z
2 -x,-y,-z
 
loop_
_atom_site_label
_atom_site_type_symbol
_atom_site_symmetry_multiplicity
_atom_site_Wyckoff_label
_atom_site_fract_x
_atom_site_fract_y
_atom_site_fract_z
_atom_site_occupancy
Co1 Co   2 i 0.31800  0.09838 0.06779 1.00000
Fe1 Fe   2 i 0.32443  0.59713 0.06514 1.00000
Fe2 Fe   2 i 0.44142  0.52180 0.68005 1.00000
Fe3 Fe   2 i 0.80849  0.84849 0.56099 1.00000
Fe4 Fe   2 i 0.81013  0.33489 0.55816 1.00000
Fe5 Fe   2 i 0.44525  0.03773 0.68651 1.00000
Fe6 Fe   2 i -0.06379 0.78045 0.19009 1.00000
Ta1 Ta   2 i 0.06506  0.71876 0.81251 1.00000
 
