# CIF file
# This file was generated by FINDSYM
# Harold T. Stokes, Branton J. Campbell, Dorian M. Hatch
# Brigham Young University, Provo, Utah, USA
 
data_findsym-output
_audit_creation_method FINDSYM
 
_symmetry_space_group_name_H-M "C 1 2 1"
_symmetry_Int_Tables_number 5
 
_cell_length_a    5.03006
_cell_length_b    16.38207
_cell_length_c    5.02333
_cell_angle_alpha 90.00000
_cell_angle_beta  109.67626
_cell_angle_gamma 90.00000
 
loop_
_space_group_symop_id
_space_group_symop_operation_xyz
1 x,y,z
2 -x,y,-z
3 x+1/2,y+1/2,z
4 -x+1/2,y+1/2,-z
 
loop_
_atom_site_label
_atom_site_type_symbol
_atom_site_symmetry_multiplicity
_atom_site_Wyckoff_label
_atom_site_fract_x
_atom_site_fract_y
_atom_site_fract_z
_atom_site_occupancy
Co1 Co   2 a 0.00000 0.75255  0.00000 1.00000
Co2 Co   2 a 0.00000 -0.00006 0.00000 1.00000
Fe1 Fe   2 b 0.00000 0.49921  0.50000 1.00000
Fe2 Fe   4 c 0.74277 0.12355  0.74268 1.00000
Fe3 Fe   4 c 0.25735 0.12766  0.75680 1.00000
Fe4 Fe   4 c 0.24979 0.37561  0.25011 1.00000
Fe5 Fe   4 c 0.24916 0.37552  0.74905 1.00000
Fe6 Fe   2 b 0.00000 0.75047  0.50000 1.00000
Fe7 Fe   2 a 0.00000 0.50083  0.00000 1.00000
Fe8 Fe   2 b 0.00000 0.25069  0.50000 1.00000
Ta1 Ta   2 a 0.00000 0.24979  0.00000 1.00000
Ta2 Ta   2 b 0.00000 0.00122  0.50000 1.00000
 
