# CIF file
# This file was generated by FINDSYM
# Harold T. Stokes, Branton J. Campbell, Dorian M. Hatch
# Brigham Young University, Provo, Utah, USA
 
data_findsym-output
_audit_creation_method FINDSYM
 
_symmetry_space_group_name_H-M "P -4 m 2"
_symmetry_Int_Tables_number 115
 
_cell_length_a    4.07302
_cell_length_b    4.07302
_cell_length_c    11.65042
_cell_angle_alpha 90.00000
_cell_angle_beta  90.00000
_cell_angle_gamma 90.00000
 
loop_
_space_group_symop_id
_space_group_symop_operation_xyz
1 x,y,z
2 -x,-y,z
3 -y,-x,-z
4 y,x,-z
5 -x,y,z
6 x,-y,z
7 y,-x,-z
8 -y,x,-z
 
loop_
_atom_site_label
_atom_site_type_symbol
_atom_site_symmetry_multiplicity
_atom_site_Wyckoff_label
_atom_site_fract_x
_atom_site_fract_y
_atom_site_fract_z
_atom_site_occupancy
Co1 Co   2 g 0.00000 0.50000 0.36981 1.00000
Fe1 Fe   2 e 0.00000 0.00000 0.25128 1.00000
Fe2 Fe   1 d 0.00000 0.00000 0.50000 1.00000
Fe3 Fe   2 g 0.00000 0.50000 0.13031 1.00000
Fe4 Fe   2 g 0.00000 0.50000 0.62915 1.00000
Fe5 Fe   2 g 0.00000 0.50000 0.86921 1.00000
Fe6 Fe   1 b 0.50000 0.50000 0.00000 1.00000
Fe7 Fe   2 f 0.50000 0.50000 0.24848 1.00000
Ta1 Ta   1 a 0.00000 0.00000 0.00000 1.00000
Ta2 Ta   1 c 0.50000 0.50000 0.50000 1.00000
 
