# CIF file
# This file was generated by FINDSYM
# Harold T. Stokes, Branton J. Campbell, Dorian M. Hatch
# Brigham Young University, Provo, Utah, USA
 
data_findsym-output
_audit_creation_method FINDSYM
 
_symmetry_space_group_name_H-M "P 1"
_symmetry_Int_Tables_number 1
 
_cell_length_a    4.79945
_cell_length_b    6.31229
_cell_length_c    7.12035
_cell_angle_alpha 112.34197
_cell_angle_beta  90.52164
_cell_angle_gamma 101.60494
 
loop_
_space_group_symop_id
_space_group_symop_operation_xyz
1 x,y,z
 
loop_
_atom_site_label
_atom_site_type_symbol
_atom_site_symmetry_multiplicity
_atom_site_Wyckoff_label
_atom_site_fract_x
_atom_site_fract_y
_atom_site_fract_z
_atom_site_occupancy
Co1  Co   1 a 0.43000  -0.06232 0.81592  1.00000
Co2  Co   1 a 0.00031  -0.00048 -0.00017 1.00000
Fe1  Fe   1 a 0.56074  0.05851  0.18889  1.00000
Fe2  Fe   1 a 0.86678  0.86969  0.63169  1.00000
Fe3  Fe   1 a 0.17138  0.68199  0.07313  1.00000
Fe4  Fe   1 a 0.23172  0.24165  0.76400  1.00000
Fe5  Fe   1 a 0.36684  0.37000  0.13172  1.00000
Fe6  Fe   1 a 0.80447  0.30170  -0.05314 1.00000
Fe7  Fe   1 a 0.06188  0.55958  0.69042  1.00000
Fe8  Fe   1 a -0.07125 0.43786  0.31700  1.00000
Fe9  Fe   1 a 0.73192  0.74139  0.26263  1.00000
Fe10 Fe   1 a 0.67079  0.18149  0.57406  1.00000
Fe11 Fe   1 a 0.50131  0.49778  0.50049  1.00000
Fe12 Fe   1 a 0.30500  0.80216  0.44621  1.00000
Ta1  Ta   1 a 0.11536  0.12035  0.38226  1.00000
Ta2  Ta   1 a 0.61621  0.62013  0.88166  1.00000
 
