# CIF file
# This file was generated by FINDSYM
# Harold T. Stokes, Branton J. Campbell, Dorian M. Hatch
# Brigham Young University, Provo, Utah, USA
 
data_findsym-output
_audit_creation_method FINDSYM
 
_symmetry_space_group_name_H-M "P 1 m 1"
_symmetry_Int_Tables_number 6
 
_cell_length_a    6.31336
_cell_length_b    4.06735
_cell_length_c    7.57981
_cell_angle_alpha 90.00000
_cell_angle_beta  92.45051
_cell_angle_gamma 90.00000
 
loop_
_space_group_symop_id
_space_group_symop_operation_xyz
1 x,y,z
2 x,-y,z
 
loop_
_atom_site_label
_atom_site_type_symbol
_atom_site_symmetry_multiplicity
_atom_site_Wyckoff_label
_atom_site_fract_x
_atom_site_fract_y
_atom_site_fract_z
_atom_site_occupancy
Co1  Co   1 b 0.31044  0.50000 -0.05288 1.00000
Co2  Co   1 a -0.00006 0.00000 0.00006  1.00000
Fe1  Fe   1 a 0.13071  0.00000 0.37490  1.00000
Fe2  Fe   1 b 0.18614  0.50000 0.55348  1.00000
Fe3  Fe   1 b 0.81220  0.50000 0.44715  1.00000
Fe4  Fe   1 b 0.06400  0.50000 0.18887  1.00000
Fe5  Fe   1 b 0.43459  0.50000 0.31166  1.00000
Fe6  Fe   1 b 0.68603  0.50000 0.05329  1.00000
Fe7  Fe   1 a 0.49889  0.00000 0.50075  1.00000
Fe8  Fe   1 a 0.36784  0.00000 0.12561  1.00000
Fe9  Fe   1 a 0.86877  0.00000 0.62669  1.00000
Fe10 Fe   1 b -0.06576 0.50000 0.81146  1.00000
Fe11 Fe   1 b 0.56343  0.50000 0.68849  1.00000
Fe12 Fe   1 a 0.62969  0.00000 0.87555  1.00000
Ta1  Ta   1 a 0.74891  0.00000 0.25172  1.00000
Ta2  Ta   1 a 0.24945  0.00000 0.74858  1.00000
 
