# CIF file
# This file was generated by FINDSYM
# Harold T. Stokes, Branton J. Campbell, Dorian M. Hatch
# Brigham Young University, Provo, Utah, USA
 
data_findsym-output
_audit_creation_method FINDSYM
 
_symmetry_space_group_name_H-M "P 1"
_symmetry_Int_Tables_number 1
 
_cell_length_a    5.76344
_cell_length_b    5.82890
_cell_length_c    6.45577
_cell_angle_alpha 63.28108
_cell_angle_beta  89.98758
_cell_angle_gamma 89.93903
 
loop_
_space_group_symop_id
_space_group_symop_operation_xyz
1 x,y,z
 
loop_
_atom_site_label
_atom_site_type_symbol
_atom_site_symmetry_multiplicity
_atom_site_Wyckoff_label
_atom_site_fract_x
_atom_site_fract_y
_atom_site_fract_z
_atom_site_occupancy
Co1  Co   1 a 0.00006 0.76495  0.49860  1.00000
Co2  Co   1 a 0.00006 -0.00010 0.00008  1.00000
Fe1  Fe   1 a 0.75004 0.14105  0.25018  1.00000
Fe2  Fe   1 a 0.50028 0.52734  -0.00114 1.00000
Fe3  Fe   1 a 0.50002 0.76511  0.49897  1.00000
Fe4  Fe   1 a 0.75032 0.63914  0.25027  1.00000
Fe5  Fe   1 a 0.50025 0.26466  0.49982  1.00000
Fe6  Fe   1 a 0.49998 0.00197  -0.00034 1.00000
Fe7  Fe   1 a 0.74850 0.89080  0.74536  1.00000
Fe8  Fe   1 a 0.00022 0.26426  0.49994  1.00000
Fe9  Fe   1 a 0.25035 0.39065  0.74838  1.00000
Fe10 Fe   1 a 0.25004 0.89050  0.74836  1.00000
Fe11 Fe   1 a 0.00015 0.52776  -0.00130 1.00000
Fe12 Fe   1 a 0.25164 0.63714  0.25320  1.00000
Ta1  Ta   1 a 0.74889 0.38591  0.75539  1.00000
Ta2  Ta   1 a 0.25137 0.14391  0.24320  1.00000
 
