# CIF file
# This file was generated by FINDSYM
# Harold T. Stokes, Branton J. Campbell, Dorian M. Hatch
# Brigham Young University, Provo, Utah, USA
 
data_findsym-output
_audit_creation_method FINDSYM
 
_symmetry_space_group_name_H-M "P -1"
_symmetry_Int_Tables_number 2
 
_cell_length_a    5.01100
_cell_length_b    6.33020
_cell_length_c    6.46063
_cell_angle_alpha 95.95773
_cell_angle_beta  104.79314
_cell_angle_gamma 96.71362
 
loop_
_space_group_symop_id
_space_group_symop_operation_xyz
1 x,y,z
2 -x,-y,-z
 
loop_
_atom_site_label
_atom_site_type_symbol
_atom_site_symmetry_multiplicity
_atom_site_Wyckoff_label
_atom_site_fract_x
_atom_site_fract_y
_atom_site_fract_z
_atom_site_occupancy
Co1 Co   2 i 0.40503  0.06098  0.17483  1.00000
Fe1 Fe   2 i -0.04101 0.68661  0.05266  1.00000
Fe2 Fe   2 i 0.84977  0.43995  0.30359  1.00000
Fe3 Fe   2 i 0.09227  -0.06286 0.81337  1.00000
Fe4 Fe   2 i 0.22923  0.19534  0.56749  1.00000
Fe5 Fe   2 i 0.53475  0.31602  -0.06147 1.00000
Fe6 Fe   2 i 0.65240  0.57136  0.69133  1.00000
Ta1 Ta   2 i 0.26982  0.80859  0.43550  1.00000
 
