# CIF file
# This file was generated by FINDSYM
# Harold T. Stokes, Branton J. Campbell, Dorian M. Hatch
# Brigham Young University, Provo, Utah, USA
 
data_findsym-output
_audit_creation_method FINDSYM
 
_symmetry_space_group_name_H-M "C 1 m 1"
_symmetry_Int_Tables_number 8
 
_cell_length_a    11.93721
_cell_length_b    4.09083
_cell_length_c    8.68147
_cell_angle_alpha 90.00000
_cell_angle_beta  113.69809
_cell_angle_gamma 90.00000
 
loop_
_space_group_symop_id
_space_group_symop_operation_xyz
1 x,y,z
2 x,-y,z
3 x+1/2,y+1/2,z
4 x+1/2,-y+1/2,z
 
loop_
_atom_site_label
_atom_site_type_symbol
_atom_site_symmetry_multiplicity
_atom_site_Wyckoff_label
_atom_site_fract_x
_atom_site_fract_y
_atom_site_fract_z
_atom_site_occupancy
Co1  Co   2 a 0.68761  0.00000 0.44356  1.00000
Co2  Co   2 a 0.00041  0.00000 0.00004  1.00000
Fe1  Fe   2 a 0.42930  0.00000 0.18922  1.00000
Fe2  Fe   2 a 0.17988  0.00000 -0.06168 1.00000
Fe3  Fe   2 a 0.74001  0.00000 0.74450  1.00000
Fe4  Fe   2 a 0.49433  0.00000 0.50281  1.00000
Fe5  Fe   2 a 0.80431  0.00000 0.06391  1.00000
Fe6  Fe   2 a -0.06643 0.00000 0.68592  1.00000
Fe7  Fe   2 a 0.56041  0.00000 0.81222  1.00000
Fe8  Fe   2 a 0.62504  0.00000 0.12649  1.00000
Fe9  Fe   2 a 0.30925  0.00000 0.55853  1.00000
Fe10 Fe   2 a 0.11935  0.00000 0.63113  1.00000
Fe11 Fe   2 a 0.86804  0.00000 0.37699  1.00000
Fe12 Fe   2 a 0.24836  0.00000 0.25027  1.00000
Ta1  Ta   2 a 0.37086  0.00000 0.87549  1.00000
Ta2  Ta   2 a 0.05773  0.00000 0.31425  1.00000
 
