# CIF file
# This file was generated by FINDSYM
# Harold T. Stokes, Branton J. Campbell, Dorian M. Hatch
# Brigham Young University, Provo, Utah, USA
 
data_findsym-output
_audit_creation_method FINDSYM
 
_symmetry_space_group_name_H-M "C m m 2"
_symmetry_Int_Tables_number 35
 
_cell_length_a    11.66953
_cell_length_b    5.73479
_cell_length_c    5.79573
_cell_angle_alpha 90.00000
_cell_angle_beta  90.00000
_cell_angle_gamma 90.00000
 
loop_
_space_group_symop_id
_space_group_symop_operation_xyz
1 x,y,z
2 -x,-y,z
3 -x,y,z
4 x,-y,z
5 x+1/2,y+1/2,z
6 -x+1/2,-y+1/2,z
7 -x+1/2,y+1/2,z
8 x+1/2,-y+1/2,z
 
loop_
_atom_site_label
_atom_site_type_symbol
_atom_site_symmetry_multiplicity
_atom_site_Wyckoff_label
_atom_site_fract_x
_atom_site_fract_y
_atom_site_fract_z
_atom_site_occupancy
Co1 Co   4 e 0.00000 0.75861 0.00018  1.00000
Fe1 Fe   4 d 0.12481 0.00000 0.25865  1.00000
Fe2 Fe   4 d 0.12530 0.00000 0.75646  1.00000
Fe3 Fe   4 e 0.00000 0.75749 0.51223  1.00000
Fe4 Fe   4 c 0.25000 0.25000 -0.00469 1.00000
Fe5 Fe   4 c 0.25000 0.25000 0.51994  1.00000
Fe6 Fe   4 d 0.62324 0.00000 0.75729  1.00000
Ta1 Ta   4 d 0.62921 0.00000 0.25847  1.00000
 
