# CIF file
# This file was generated by FINDSYM
# Harold T. Stokes, Branton J. Campbell, Dorian M. Hatch
# Brigham Young University, Provo, Utah, USA
 
data_findsym-output
_audit_creation_method FINDSYM
 
_symmetry_space_group_name_H-M "C 1 m 1"
_symmetry_Int_Tables_number 8
 
_cell_length_a    8.15749
_cell_length_b    4.57071
_cell_length_c    11.17702
_cell_angle_alpha 90.00000
_cell_angle_beta  111.29985
_cell_angle_gamma 90.00000
 
loop_
_space_group_symop_id
_space_group_symop_operation_xyz
1 x,y,z
2 x,-y,z
3 x+1/2,y+1/2,z
4 x+1/2,-y+1/2,z
 
loop_
_atom_site_label
_atom_site_type_symbol
_atom_site_symmetry_multiplicity
_atom_site_Wyckoff_label
_atom_site_fract_x
_atom_site_fract_y
_atom_site_fract_z
_atom_site_occupancy
Co1  Co   2 a 0.07511  0.00000 0.47352  1.00000
Co2  Co   2 a -0.00057 0.00000 -0.00044 1.00000
Fe1  Fe   2 a 0.39842  0.00000 0.47300  1.00000
Fe2  Fe   2 a 0.27611  0.00000 0.88445  1.00000
Fe3  Fe   2 a 0.48568  0.00000 0.29827  1.00000
Fe4  Fe   2 a 0.81201  0.00000 0.29925  1.00000
Fe5  Fe   2 a 0.54719  0.00000 0.09633  1.00000
Fe6  Fe   4 b 0.79714  0.24993 0.09589  1.00000
Fe7  Fe   4 b 0.08636  0.24987 0.67409  1.00000
Fe8  Fe   2 a 0.60691  0.00000 0.88513  1.00000
Fe9  Fe   2 a 0.33726  0.00000 0.67509  1.00000
Fe10 Fe   2 a 0.89146  0.00000 0.78348  1.00000
Ta1  Ta   2 a 0.75759  0.00000 0.51803  1.00000
Ta2  Ta   2 a 0.12630  0.00000 0.25427  1.00000
 
