# CIF file
# This file was generated by FINDSYM
# Harold T. Stokes, Branton J. Campbell, Dorian M. Hatch
# Brigham Young University, Provo, Utah, USA
 
data_findsym-output
_audit_creation_method FINDSYM
 
_symmetry_space_group_name_H-M "C 1 m 1"
_symmetry_Int_Tables_number 8
 
_cell_length_a    11.67870
_cell_length_b    5.74391
_cell_length_c    6.48547
_cell_angle_alpha 90.00000
_cell_angle_beta  116.63345
_cell_angle_gamma 90.00000
 
loop_
_space_group_symop_id
_space_group_symop_operation_xyz
1 x,y,z
2 x,-y,z
3 x+1/2,y+1/2,z
4 x+1/2,-y+1/2,z
 
loop_
_atom_site_label
_atom_site_type_symbol
_atom_site_symmetry_multiplicity
_atom_site_Wyckoff_label
_atom_site_fract_x
_atom_site_fract_y
_atom_site_fract_z
_atom_site_occupancy
Co1 Co   2 a 0.37592 0.00000 0.49964  1.00000
Co2 Co   2 a 0.00019 0.00000 0.00029  1.00000
Fe1 Fe   4 b 0.81557 0.25839 0.75488  1.00000
Fe2 Fe   4 b 0.56737 0.25053 0.76418  1.00000
Fe3 Fe   4 b 0.43568 0.25131 0.23519  1.00000
Fe4 Fe   4 b 0.18763 0.24129 0.24452  1.00000
Fe5 Fe   2 a 0.12658 0.00000 0.50056  1.00000
Fe6 Fe   2 a 0.50297 0.00000 -0.00039 1.00000
Fe7 Fe   2 a 0.75083 0.00000 0.00004  1.00000
Fe8 Fe   2 a 0.25215 0.00000 -0.00019 1.00000
Ta1 Ta   2 a 0.62212 0.00000 0.49849  1.00000
Ta2 Ta   2 a 0.88074 0.00000 0.50088  1.00000
 
