# CIF file
# This file was generated by FINDSYM
# Harold T. Stokes, Branton J. Campbell, Dorian M. Hatch
# Brigham Young University, Provo, Utah, USA
 
data_findsym-output
_audit_creation_method FINDSYM
 
_symmetry_space_group_name_H-M "P m m 2"
_symmetry_Int_Tables_number 25
 
_cell_length_a    8.18055
_cell_length_b    4.08377
_cell_length_c    5.83493
_cell_angle_alpha 90.00000
_cell_angle_beta  90.00000
_cell_angle_gamma 90.00000
 
loop_
_space_group_symop_id
_space_group_symop_operation_xyz
1 x,y,z
2 -x,-y,z
3 -x,y,z
4 x,-y,z
 
loop_
_atom_site_label
_atom_site_type_symbol
_atom_site_symmetry_multiplicity
_atom_site_Wyckoff_label
_atom_site_fract_x
_atom_site_fract_y
_atom_site_fract_z
_atom_site_occupancy
Co1 Co   1 c 0.50000 0.00000 0.51290 1.00000
Co2 Co   1 a 0.00000 0.00000 0.00024 1.00000
Fe1 Fe   1 d 0.50000 0.50000 0.74960 1.00000
Fe2 Fe   1 a 0.00000 0.00000 0.52464 1.00000
Fe3 Fe   2 f 0.74823 0.50000 0.51737 1.00000
Fe4 Fe   2 f 0.25411 0.50000 0.00664 1.00000
Fe5 Fe   1 d 0.50000 0.50000 0.27504 1.00000
Fe6 Fe   1 b 0.00000 0.50000 0.76216 1.00000
Fe7 Fe   2 e 0.24740 0.00000 0.75782 1.00000
Fe8 Fe   2 e 0.75345 0.00000 0.26950 1.00000
Ta1 Ta   1 c 0.50000 0.00000 0.01449 1.00000
Ta2 Ta   1 b 0.00000 0.50000 0.26172 1.00000
 
