# CIF file
# This file was generated by FINDSYM
# Harold T. Stokes, Branton J. Campbell, Dorian M. Hatch
# Brigham Young University, Provo, Utah, USA
 
data_findsym-output
_audit_creation_method FINDSYM
 
_symmetry_space_group_name_H-M "P m n 21"
_symmetry_Int_Tables_number 31
 
_cell_length_a    4.08762
_cell_length_b    8.15999
_cell_length_c    5.81383
_cell_angle_alpha 90.00000
_cell_angle_beta  90.00000
_cell_angle_gamma 90.00000
 
loop_
_space_group_symop_id
_space_group_symop_operation_xyz
1 x,y,z
2 -x+1/2,-y,z+1/2
3 -x,y,z
4 x+1/2,-y,z+1/2
 
loop_
_atom_site_label
_atom_site_type_symbol
_atom_site_symmetry_multiplicity
_atom_site_Wyckoff_label
_atom_site_fract_x
_atom_site_fract_y
_atom_site_fract_z
_atom_site_occupancy
Co1 Co   2 a 0.00000 0.36813 0.21703  1.00000
Fe1 Fe   2 a 0.00000 0.36947 0.73154  1.00000
Fe2 Fe   2 a 0.00000 0.87915 0.22969  1.00000
Fe3 Fe   2 a 0.00000 0.87910 0.71873  1.00000
Fe4 Fe   2 a 0.00000 0.62978 0.47300  1.00000
Fe5 Fe   2 a 0.00000 0.12107 -0.02572 1.00000
Fe6 Fe   2 a 0.00000 0.12176 0.47541  1.00000
Ta1 Ta   2 a 0.00000 0.62759 -0.02552 1.00000
 
