# CIF file
# This file was generated by FINDSYM
# Harold T. Stokes, Branton J. Campbell, Dorian M. Hatch
# Brigham Young University, Provo, Utah, USA
 
data_findsym-output
_audit_creation_method FINDSYM
 
_symmetry_space_group_name_H-M "P 1 21/m 1"
_symmetry_Int_Tables_number 11
 
_cell_length_a    5.82837
_cell_length_b    4.08226
_cell_length_c    8.19322
_cell_angle_alpha 90.00000
_cell_angle_beta  90.04837
_cell_angle_gamma 90.00000
 
loop_
_space_group_symop_id
_space_group_symop_operation_xyz
1 x,y,z
2 -x,y+1/2,-z
3 -x,-y,-z
4 x,-y+1/2,z
 
loop_
_atom_site_label
_atom_site_type_symbol
_atom_site_symmetry_multiplicity
_atom_site_Wyckoff_label
_atom_site_fract_x
_atom_site_fract_y
_atom_site_fract_z
_atom_site_occupancy
Co1 Co   2 e 0.37863 0.25000 0.49688 1.00000
Fe1 Fe   2 e 0.86861 0.25000 0.00368 1.00000
Fe2 Fe   2 e 0.86684 0.25000 0.49615 1.00000
Fe3 Fe   2 e 0.61203 0.25000 0.25000 1.00000
Fe4 Fe   2 e 0.62429 0.25000 0.75027 1.00000
Fe5 Fe   2 e 0.37998 0.25000 0.00283 1.00000
Fe6 Fe   2 e 0.13637 0.25000 0.25124 1.00000
Ta1 Ta   2 e 0.12377 0.25000 0.75022 1.00000
 
