# CIF file
# This file was generated by FINDSYM
# Harold T. Stokes, Branton J. Campbell, Dorian M. Hatch
# Brigham Young University, Provo, Utah, USA
 
data_findsym-output
_audit_creation_method FINDSYM
 
_symmetry_space_group_name_H-M "C 1 m 1"
_symmetry_Int_Tables_number 8
 
_cell_length_a    9.08515
_cell_length_b    2.96548
_cell_length_c    14.64480
_cell_angle_alpha 90.00000
_cell_angle_beta  97.40904
_cell_angle_gamma 90.00000
 
loop_
_space_group_symop_id
_space_group_symop_operation_xyz
1 x,y,z
2 x,-y,z
3 x+1/2,y+1/2,z
4 x+1/2,-y+1/2,z
 
loop_
_atom_site_label
_atom_site_type_symbol
_atom_site_symmetry_multiplicity
_atom_site_Wyckoff_label
_atom_site_fract_x
_atom_site_fract_y
_atom_site_fract_z
_atom_site_occupancy
Co1  Co   2 a 0.74616  0.00000 0.75783  1.00000
Co2  Co   2 a 0.00009  0.00000 -0.00009 1.00000
Fe1  Fe   2 a 0.31343  0.00000 0.05982  1.00000
Fe2  Fe   2 a 0.43647  0.00000 0.70032  1.00000
Fe3  Fe   2 a 0.25757  0.00000 0.24452  1.00000
Fe4  Fe   2 a 0.11582  0.00000 0.63521  1.00000
Fe5  Fe   2 a 0.06223  0.00000 0.81888  1.00000
Fe6  Fe   2 a 0.87101  0.00000 0.37762  1.00000
Fe7  Fe   2 a 0.50191  0.00000 0.50160  1.00000
Fe8  Fe   2 a 0.68551  0.00000 -0.06009 1.00000
Fe9  Fe   2 a -0.06349 0.00000 0.17922  1.00000
Fe10 Fe   2 a 0.62707  0.00000 0.12127  1.00000
Fe11 Fe   2 a 0.37318  0.00000 0.87908  1.00000
Fe12 Fe   2 a 0.18648  0.00000 0.43950  1.00000
Ta1  Ta   2 a 0.80976  0.00000 0.56900  1.00000
Ta2  Ta   2 a 0.56304  0.00000 0.30957  1.00000
 
