# CIF file
# This file was generated by FINDSYM
# Harold T. Stokes, Branton J. Campbell, Dorian M. Hatch
# Brigham Young University, Provo, Utah, USA
 
data_findsym-output
_audit_creation_method FINDSYM
 
_symmetry_space_group_name_H-M "P -1"
_symmetry_Int_Tables_number 2
 
_cell_length_a    4.80360
_cell_length_b    5.01549
_cell_length_c    8.22732
_cell_angle_alpha 90.92585
_cell_angle_beta  90.37306
_cell_angle_gamma 99.59466
 
loop_
_space_group_symop_id
_space_group_symop_operation_xyz
1 x,y,z
2 -x,-y,-z
 
loop_
_atom_site_label
_atom_site_type_symbol
_atom_site_symmetry_multiplicity
_atom_site_Wyckoff_label
_atom_site_fract_x
_atom_site_fract_y
_atom_site_fract_z
_atom_site_occupancy
Co1 Co   2 i 0.37295 0.31962 0.11674 1.00000
Fe1 Fe   2 i 0.37607 0.81426 0.12281 1.00000
Fe2 Fe   2 i 0.88036 0.56529 0.12337 1.00000
Fe3 Fe   2 i 0.13673 0.44780 0.37171 1.00000
Fe4 Fe   2 i 0.36644 0.30299 0.63181 1.00000
Fe5 Fe   2 i 0.88099 0.06046 0.63053 1.00000
Fe6 Fe   2 i 0.88212 0.06377 0.11840 1.00000
Ta1 Ta   2 i 0.62913 0.19801 0.37182 1.00000
 
