# CIF file
# This file was generated by FINDSYM
# Harold T. Stokes, Branton J. Campbell, Dorian M. Hatch
# Brigham Young University, Provo, Utah, USA
 
data_findsym-output
_audit_creation_method FINDSYM
 
_symmetry_space_group_name_H-M "P 1 m 1"
_symmetry_Int_Tables_number 6
 
_cell_length_a    4.82632
_cell_length_b    8.12845
_cell_length_c    5.03624
_cell_angle_alpha 90.00000
_cell_angle_beta  100.34364
_cell_angle_gamma 90.00000
 
loop_
_space_group_symop_id
_space_group_symop_operation_xyz
1 x,y,z
2 x,-y,z
 
loop_
_atom_site_label
_atom_site_type_symbol
_atom_site_symmetry_multiplicity
_atom_site_Wyckoff_label
_atom_site_fract_x
_atom_site_fract_y
_atom_site_fract_z
_atom_site_occupancy
Co1 Co   1 b 0.49509  0.50000 0.24309  1.00000
Co2 Co   1 a 0.00018  0.00000 0.00008  1.00000
Fe1 Fe   2 c 0.25993  0.24983 0.36568  1.00000
Fe2 Fe   2 c 0.74090  0.24966 0.63398  1.00000
Fe3 Fe   2 c 0.74733  0.74982 0.12386  1.00000
Fe4 Fe   1 b 0.50736  0.50000 0.75726  1.00000
Fe5 Fe   1 b 0.00042  0.50000 -0.00084 1.00000
Fe6 Fe   2 c 0.25321  0.25032 0.87553  1.00000
Fe7 Fe   1 a 0.50496  0.00000 0.75598  1.00000
Fe8 Fe   1 a 0.49495  0.00000 0.24336  1.00000
Ta1 Ta   1 b 0.00056  0.50000 0.49962  1.00000
Ta2 Ta   1 a -0.00010 0.00000 0.50056  1.00000
 
