# CIF file
# This file was generated by FINDSYM
# Harold T. Stokes, Branton J. Campbell, Dorian M. Hatch
# Brigham Young University, Provo, Utah, USA
 
data_findsym-output
_audit_creation_method FINDSYM
 
_symmetry_space_group_name_H-M "P 1 m 1"
_symmetry_Int_Tables_number 6
 
_cell_length_a    7.07737
_cell_length_b    4.08337
_cell_length_c    7.11562
_cell_angle_alpha 90.00000
_cell_angle_beta  109.34431
_cell_angle_gamma 90.00000
 
loop_
_space_group_symop_id
_space_group_symop_operation_xyz
1 x,y,z
2 x,-y,z
 
loop_
_atom_site_label
_atom_site_type_symbol
_atom_site_symmetry_multiplicity
_atom_site_Wyckoff_label
_atom_site_fract_x
_atom_site_fract_y
_atom_site_fract_z
_atom_site_occupancy
Co1  Co   1 b 0.00688 0.50000 0.51905 1.00000
Co2  Co   1 a 0.00026 0.00000 0.00005 1.00000
Fe1  Fe   1 b 0.37890 0.50000 0.63578 1.00000
Fe2  Fe   1 b 0.25608 0.50000 0.27072 1.00000
Fe3  Fe   1 b 0.75222 0.50000 0.75367 1.00000
Fe4  Fe   1 a 0.87860 0.00000 0.63599 1.00000
Fe5  Fe   1 b 0.63106 0.50000 0.39172 1.00000
Fe6  Fe   1 b 0.12779 0.50000 0.88034 1.00000
Fe7  Fe   1 a 0.62643 0.00000 0.88049 1.00000
Fe8  Fe   1 b 0.50062 0.50000 0.00063 1.00000
Fe9  Fe   1 a 0.75834 0.00000 0.27183 1.00000
Fe10 Fe   1 a 0.50619 0.00000 0.51925 1.00000
Fe11 Fe   1 a 0.25044 0.00000 0.75355 1.00000
Fe12 Fe   1 a 0.13082 0.00000 0.39237 1.00000
Ta1  Ta   1 a 0.38004 0.00000 0.13652 1.00000
Ta2  Ta   1 b 0.87756 0.50000 0.13520 1.00000
 
