# CIF file
# This file was generated by FINDSYM
# Harold T. Stokes, Branton J. Campbell, Dorian M. Hatch
# Brigham Young University, Provo, Utah, USA
 
data_findsym-output
_audit_creation_method FINDSYM
 
_symmetry_space_group_name_H-M "P 1 2/m 1"
_symmetry_Int_Tables_number 10
 
_cell_length_a    5.83445
_cell_length_b    4.08429
_cell_length_c    8.65360
_cell_angle_alpha 90.00000
_cell_angle_beta  109.38079
_cell_angle_gamma 90.00000
 
loop_
_space_group_symop_id
_space_group_symop_operation_xyz
1 x,y,z
2 -x,y,-z
3 -x,-y,-z
4 x,-y,z
 
loop_
_atom_site_label
_atom_site_type_symbol
_atom_site_symmetry_multiplicity
_atom_site_Wyckoff_label
_atom_site_fract_x
_atom_site_fract_y
_atom_site_fract_z
_atom_site_occupancy
Co1 Co   2 n 0.73527 0.50000 -0.00292 1.00000
Fe1 Fe   2 m 0.38311 0.00000 0.25191  1.00000
Fe2 Fe   2 n 0.88433 0.50000 0.75413  1.00000
Fe3 Fe   2 m 0.86959 0.00000 0.25160  1.00000
Fe4 Fe   2 n 0.37060 0.50000 0.75347  1.00000
Fe5 Fe   1 d 0.50000 0.00000 0.00000  1.00000
Fe6 Fe   1 f 0.00000 0.50000 0.50000  1.00000
Fe7 Fe   2 m 0.23711 0.00000 0.49689  1.00000
Ta1 Ta   1 a 0.00000 0.00000 0.00000  1.00000
Ta2 Ta   1 h 0.50000 0.50000 0.50000  1.00000
 
