# CIF file
# This file was generated by FINDSYM
# Harold T. Stokes, Branton J. Campbell, Dorian M. Hatch
# Brigham Young University, Provo, Utah, USA
 
data_findsym-output
_audit_creation_method FINDSYM
 
_symmetry_space_group_name_H-M "P m m 2"
_symmetry_Int_Tables_number 25
 
_cell_length_a    4.06768
_cell_length_b    8.12922
_cell_length_c    5.88109
_cell_angle_alpha 90.00000
_cell_angle_beta  90.00000
_cell_angle_gamma 90.00000
 
loop_
_space_group_symop_id
_space_group_symop_operation_xyz
1 x,y,z
2 -x,-y,z
3 -x,y,z
4 x,-y,z
 
loop_
_atom_site_label
_atom_site_type_symbol
_atom_site_symmetry_multiplicity
_atom_site_Wyckoff_label
_atom_site_fract_x
_atom_site_fract_y
_atom_site_fract_z
_atom_site_occupancy
Co1 Co   1 b 0.00000 0.50000 0.25836 1.00000
Co2 Co   1 c 0.50000 0.00000 0.02074 1.00000
Fe1 Fe   1 b 0.00000 0.50000 0.78068 1.00000
Fe2 Fe   2 h 0.50000 0.75057 0.25914 1.00000
Fe3 Fe   2 h 0.50000 0.24949 0.78170 1.00000
Fe4 Fe   1 d 0.50000 0.50000 0.01934 1.00000
Fe5 Fe   2 g 0.00000 0.24953 0.52115 1.00000
Fe6 Fe   2 g 0.00000 0.74915 0.02092 1.00000
Fe7 Fe   1 a 0.00000 0.00000 0.25890 1.00000
Fe8 Fe   1 a 0.00000 0.00000 0.78245 1.00000
Ta1 Ta   1 d 0.50000 0.50000 0.52075 1.00000
Ta2 Ta   1 c 0.50000 0.00000 0.52026 1.00000
 
