# CIF file
# This file was generated by FINDSYM
# Harold T. Stokes, Branton J. Campbell, Dorian M. Hatch
# Brigham Young University, Provo, Utah, USA
 
data_findsym-output
_audit_creation_method FINDSYM
 
_symmetry_space_group_name_H-M "P 1 21/m 1"
_symmetry_Int_Tables_number 11
 
_cell_length_a    8.21974
_cell_length_b    4.06611
_cell_length_c    12.34245
_cell_angle_alpha 90.00000
_cell_angle_beta  109.35958
_cell_angle_gamma 90.00000
 
loop_
_space_group_symop_id
_space_group_symop_operation_xyz
1 x,y,z
2 -x,y+1/2,-z
3 -x,-y,-z
4 x,-y+1/2,z
 
loop_
_atom_site_label
_atom_site_type_symbol
_atom_site_symmetry_multiplicity
_atom_site_Wyckoff_label
_atom_site_fract_x
_atom_site_fract_y
_atom_site_fract_z
_atom_site_occupancy
Co1  Co   2 e 0.59843  0.25000 0.18984  1.00000
Co2  Co   2 e -0.09839 0.25000 0.31020  1.00000
Fe1  Fe   2 e -0.03552 0.25000 -0.06561 1.00000
Fe2  Fe   2 e 0.53549  0.25000 0.56560  1.00000
Fe3  Fe   2 e 0.15729  0.25000 0.81094  1.00000
Fe4  Fe   2 e 0.34266  0.25000 0.68902  1.00000
Fe5  Fe   2 e 0.71727  0.25000 0.43145  1.00000
Fe6  Fe   2 e 0.78274  0.25000 0.06857  1.00000
Fe7  Fe   2 e 0.41131  0.25000 0.31141  1.00000
Fe8  Fe   2 e 0.08872  0.25000 0.18859  1.00000
Fe9  Fe   2 e 0.47004  0.25000 -0.06640 1.00000
Fe10 Fe   2 e 0.02992  0.25000 0.56636  1.00000
Fe11 Fe   2 e 0.84848  0.25000 0.69419  1.00000
Fe12 Fe   2 e 0.65150  0.25000 0.80581  1.00000
Ta1  Ta   2 e 0.21850  0.25000 0.43793  1.00000
Ta2  Ta   2 e 0.28152  0.25000 0.06205  1.00000
 
