# CIF file
# This file was generated by FINDSYM
# Harold T. Stokes, Branton J. Campbell, Dorian M. Hatch
# Brigham Young University, Provo, Utah, USA
 
data_findsym-output
_audit_creation_method FINDSYM
 
_symmetry_space_group_name_H-M "C 1 m 1"
_symmetry_Int_Tables_number 8
 
_cell_length_a    12.33734
_cell_length_b    4.07437
_cell_length_c    8.14451
_cell_angle_alpha 90.00000
_cell_angle_beta  109.27392
_cell_angle_gamma 90.00000
 
loop_
_space_group_symop_id
_space_group_symop_operation_xyz
1 x,y,z
2 x,-y,z
3 x+1/2,y+1/2,z
4 x+1/2,-y+1/2,z
 
loop_
_atom_site_label
_atom_site_type_symbol
_atom_site_symmetry_multiplicity
_atom_site_Wyckoff_label
_atom_site_fract_x
_atom_site_fract_y
_atom_site_fract_z
_atom_site_occupancy
Co1  Co   2 a 0.45989  0.00000 0.41358  1.00000
Co2  Co   2 a -0.03963 0.00000 0.16621  1.00000
Fe1  Fe   2 a 0.83891  0.00000 0.35530  1.00000
Fe2  Fe   2 a 0.22050  0.00000 0.29536  1.00000
Fe3  Fe   2 a 0.34208  0.00000 0.10517  1.00000
Fe4  Fe   2 a 0.72066  0.00000 0.54459  1.00000
Fe5  Fe   2 a 0.72123  0.00000 0.04585  1.00000
Fe6  Fe   2 a 0.34228  0.00000 0.60651  1.00000
Fe7  Fe   2 a 0.59257  0.00000 0.23094  1.00000
Fe8  Fe   2 a 0.84010  0.00000 0.85399  1.00000
Fe9  Fe   2 a 0.59173  0.00000 0.73089  1.00000
Fe10 Fe   2 a 0.46148  0.00000 -0.08387 1.00000
Fe11 Fe   2 a 0.22130  0.00000 0.79509  1.00000
Fe12 Fe   2 a -0.03895 0.00000 0.66411  1.00000
Ta1  Ta   2 a 0.09116  0.00000 -0.02060 1.00000
Ta2  Ta   2 a 0.09149  0.00000 0.48166  1.00000
 
