# CIF file
# This file was generated by FINDSYM
# Harold T. Stokes, Branton J. Campbell, Dorian M. Hatch
# Brigham Young University, Provo, Utah, USA
 
data_findsym-output
_audit_creation_method FINDSYM
 
_symmetry_space_group_name_H-M "P -1"
_symmetry_Int_Tables_number 2
 
_cell_length_a    4.63833
_cell_length_b    4.75899
_cell_length_c    6.17179
_cell_angle_alpha 69.66744
_cell_angle_beta  78.00884
_cell_angle_gamma 62.45150
 
loop_
_space_group_symop_id
_space_group_symop_operation_xyz
1 x,y,z
2 -x,-y,-z
 
loop_
_atom_site_label
_atom_site_type_symbol
_atom_site_symmetry_multiplicity
_atom_site_Wyckoff_label
_atom_site_fract_x
_atom_site_fract_y
_atom_site_fract_z
_atom_site_occupancy
Fe1 Fe   2 i 0.24872 0.25423 -0.00721 1.00000
Fe2 Fe   2 i 0.85286 0.23772 0.79343  1.00000
Fe3 Fe   2 i 0.64518 0.25209 0.19901  1.00000
Fe4 Fe   2 i 0.55039 0.75179 0.40333  1.00000
Si1 Si   2 i 0.05433 0.26561 0.38184  1.00000
 
