# CIF file
# This file was generated by FINDSYM
# Harold T. Stokes, Branton J. Campbell, Dorian M. Hatch
# Brigham Young University, Provo, Utah, USA
 
data_findsym-output
_audit_creation_method FINDSYM
 
_symmetry_space_group_name_H-M "P -1"
_symmetry_Int_Tables_number 2
 
_cell_length_a    4.66832
_cell_length_b    4.67408
_cell_length_c    5.66824
_cell_angle_alpha 71.85964
_cell_angle_beta  73.13767
_cell_angle_gamma 85.63300
 
loop_
_space_group_symop_id
_space_group_symop_operation_xyz
1 x,y,z
2 -x,-y,-z
 
loop_
_atom_site_label
_atom_site_type_symbol
_atom_site_symmetry_multiplicity
_atom_site_Wyckoff_label
_atom_site_fract_x
_atom_site_fract_y
_atom_site_fract_z
_atom_site_occupancy
Fe1 Fe   2 i 0.89634 0.80048 0.44932  1.00000
Fe2 Fe   2 i 0.89733 0.80251 -0.04787 1.00000
Fe3 Fe   2 i 0.49894 0.00829 0.74708  1.00000
Fe4 Fe   2 i 0.70019 0.39947 0.85059  1.00000
Si1 Si   2 i 0.28399 0.60848 0.66244  1.00000
 
