# CIF file
# This file was generated by FINDSYM
# Harold T. Stokes, Branton J. Campbell, Dorian M. Hatch
# Brigham Young University, Provo, Utah, USA
 
data_findsym-output
_audit_creation_method FINDSYM
 
_symmetry_space_group_name_H-M "P 1 2/m 1"
_symmetry_Int_Tables_number 10
 
_cell_length_a    6.17486
_cell_length_b    2.86155
_cell_length_c    6.26076
_cell_angle_alpha 90.00000
_cell_angle_beta  91.36115
_cell_angle_gamma 90.00000
 
loop_
_space_group_symop_id
_space_group_symop_operation_xyz
1 x,y,z
2 -x,y,-z
3 -x,-y,-z
4 x,-y,z
 
loop_
_atom_site_label
_atom_site_type_symbol
_atom_site_symmetry_multiplicity
_atom_site_Wyckoff_label
_atom_site_fract_x
_atom_site_fract_y
_atom_site_fract_z
_atom_site_occupancy
Fe1 Fe   2 m 0.68679 0.00000 0.09437 1.00000
Fe2 Fe   2 n 0.20286 0.50000 0.60331 1.00000
Fe3 Fe   2 m 0.09653 0.00000 0.30117 1.00000
Fe4 Fe   1 b 0.00000 0.50000 0.00000 1.00000
Fe5 Fe   1 g 0.50000 0.00000 0.50000 1.00000
Si1 Si   2 n 0.60718 0.50000 0.78772 1.00000
 
