# CIF file
# This file was generated by FINDSYM
# Harold T. Stokes, Branton J. Campbell, Dorian M. Hatch
# Brigham Young University, Provo, Utah, USA
 
data_findsym-output
_audit_creation_method FINDSYM
 
_symmetry_space_group_name_H-M "P -1"
_symmetry_Int_Tables_number 2
 
_cell_length_a    4.64011
_cell_length_b    4.66195
_cell_length_c    6.15948
_cell_angle_alpha 70.14899
_cell_angle_beta  77.33190
_cell_angle_gamma 63.26607
 
loop_
_space_group_symop_id
_space_group_symop_operation_xyz
1 x,y,z
2 -x,-y,-z
 
loop_
_atom_site_label
_atom_site_type_symbol
_atom_site_symmetry_multiplicity
_atom_site_Wyckoff_label
_atom_site_fract_x
_atom_site_fract_y
_atom_site_fract_z
_atom_site_occupancy
Fe1 Fe   2 i -0.05275 0.75740 0.10243  1.00000
Fe2 Fe   2 i 0.65447  0.24719 0.69441  1.00000
Fe3 Fe   2 i 0.55825  0.74582 -0.09612 1.00000
Fe4 Fe   2 i 0.25061  0.24966 0.49918  1.00000
Si1 Si   2 i 0.84207  0.26157 0.28993  1.00000
 
