# CIF file
# This file was generated by FINDSYM
# Harold T. Stokes, Branton J. Campbell, Dorian M. Hatch
# Brigham Young University, Provo, Utah, USA
 
data_findsym-output
_audit_creation_method FINDSYM
 
_symmetry_space_group_name_H-M "P 3 m 1"
_symmetry_Int_Tables_number 156
 
_cell_length_a    4.65921
_cell_length_b    4.65921
_cell_length_c    5.74577
_cell_angle_alpha 90.00000
_cell_angle_beta  90.00000
_cell_angle_gamma 120.00000
 
loop_
_space_group_symop_id
_space_group_symop_operation_xyz
1 x,y,z
2 -y,x-y,z
3 -x+y,-x,z
4 -x+y,y,z
5 -y,-x,z
6 x,x-y,z
 
loop_
_atom_site_label
_atom_site_type_symbol
_atom_site_symmetry_multiplicity
_atom_site_Wyckoff_label
_atom_site_fract_x
_atom_site_fract_y
_atom_site_fract_z
_atom_site_occupancy
Fe1 Fe   3 d 0.17288 0.82712 0.75164  1.00000
Fe2 Fe   1 a 0.00000 0.00000 0.07452  1.00000
Fe3 Fe   1 c 0.66667 0.33333 -0.07059 1.00000
Fe4 Fe   1 a 0.00000 0.00000 0.43469  1.00000
Sc1 Sc   1 c 0.66667 0.33333 0.45379  1.00000
Sc2 Sc   1 b 0.33333 0.66667 0.19763  1.00000
 
