# CIF file
# This file was generated by FINDSYM
# Harold T. Stokes, Branton J. Campbell, Dorian M. Hatch
# Brigham Young University, Provo, Utah, USA
 
data_findsym-output
_audit_creation_method FINDSYM
 
_symmetry_space_group_name_H-M "P 1 21/m 1"
_symmetry_Int_Tables_number 11
 
_cell_length_a    5.08890
_cell_length_b    4.13222
_cell_length_c    5.24321
_cell_angle_alpha 90.00000
_cell_angle_beta  98.96470
_cell_angle_gamma 90.00000
 
loop_
_space_group_symop_id
_space_group_symop_operation_xyz
1 x,y,z
2 -x,y+1/2,-z
3 -x,-y,-z
4 x,-y+1/2,z
 
loop_
_atom_site_label
_atom_site_type_symbol
_atom_site_symmetry_multiplicity
_atom_site_Wyckoff_label
_atom_site_fract_x
_atom_site_fract_y
_atom_site_fract_z
_atom_site_occupancy
Fe1 Fe   2 e 0.86405 0.25000 0.55220 1.00000
Fe2 Fe   2 e 0.89859 0.25000 0.05059 1.00000
Fe3 Fe   2 e 0.32644 0.25000 0.30590 1.00000
Sc1 Sc   2 e 0.37378 0.25000 0.79440 1.00000
 
