# CIF file
# This file was generated by FINDSYM
# Harold T. Stokes, Branton J. Campbell, Dorian M. Hatch
# Brigham Young University, Provo, Utah, USA
 
data_findsym-output
_audit_creation_method FINDSYM
 
_symmetry_space_group_name_H-M "P -1"
_symmetry_Int_Tables_number 2
 
_cell_length_a    4.88800
_cell_length_b    4.89089
_cell_length_c    5.85311
_cell_angle_alpha 86.47368
_cell_angle_beta  70.30634
_cell_angle_gamma 60.34732
 
loop_
_space_group_symop_id
_space_group_symop_operation_xyz
1 x,y,z
2 -x,-y,-z
 
loop_
_atom_site_label
_atom_site_type_symbol
_atom_site_symmetry_multiplicity
_atom_site_Wyckoff_label
_atom_site_fract_x
_atom_site_fract_y
_atom_site_fract_z
_atom_site_occupancy
Fe1 Fe   2 i -0.08541 0.14989 0.84144 1.00000
Fe2 Fe   2 i 0.24473  0.74913 0.50529 1.00000
Fe3 Fe   2 i 0.24942  0.44832 0.83384 1.00000
Sc1 Sc   2 i 0.35759  0.21626 0.28038 1.00000
 
