# CIF file
# This file was generated by FINDSYM
# Harold T. Stokes, Branton J. Campbell, Dorian M. Hatch
# Brigham Young University, Provo, Utah, USA
 
data_findsym-output
_audit_creation_method FINDSYM
 
_symmetry_space_group_name_H-M "C 1 2 1"
_symmetry_Int_Tables_number 5
 
_cell_length_a    17.02244
_cell_length_b    4.93156
_cell_length_c    5.04933
_cell_angle_alpha 90.00000
_cell_angle_beta  98.48943
_cell_angle_gamma 90.00000
 
loop_
_space_group_symop_id
_space_group_symop_operation_xyz
1 x,y,z
2 -x,y,-z
3 x+1/2,y+1/2,z
4 -x+1/2,y+1/2,-z
 
loop_
_atom_site_label
_atom_site_type_symbol
_atom_site_symmetry_multiplicity
_atom_site_Wyckoff_label
_atom_site_fract_x
_atom_site_fract_y
_atom_site_fract_z
_atom_site_occupancy
Fe1 Fe   2 b 0.00000 0.00888  0.50000 1.00000
Fe2 Fe   4 c 0.60688 0.26970  0.31215 1.00000
Fe3 Fe   4 c 0.70501 0.01855  0.09308 1.00000
Fe4 Fe   2 a 0.00000 -0.00125 0.00000 1.00000
Ta1 Ta   4 c 0.10345 0.27343  0.29879 1.00000
Ta2 Ta   4 c 0.73731 0.01478  0.64520 1.00000
Ta3 Ta   4 c 0.14984 0.01465  0.81718 1.00000
Ta4 Ta   4 c 0.44773 0.03644  0.22553 1.00000
 
