# CIF file
# This file was generated by FINDSYM
# Harold T. Stokes, Branton J. Campbell, Dorian M. Hatch
# Brigham Young University, Provo, Utah, USA
 
data_findsym-output
_audit_creation_method FINDSYM
 
_symmetry_space_group_name_H-M "P 1"
_symmetry_Int_Tables_number 1
 
_cell_length_a    4.88972
_cell_length_b    6.99638
_cell_length_c    7.03414
_cell_angle_alpha 91.49847
_cell_angle_beta  109.48587
_cell_angle_gamma 110.07016
 
loop_
_space_group_symop_id
_space_group_symop_operation_xyz
1 x,y,z
 
loop_
_atom_site_label
_atom_site_type_symbol
_atom_site_symmetry_multiplicity
_atom_site_Wyckoff_label
_atom_site_fract_x
_atom_site_fract_y
_atom_site_fract_z
_atom_site_occupancy
Fe1 Fe   1 a 0.51839  0.88137  0.63365  1.00000
Fe2 Fe   1 a 0.50334  0.49907  0.49861  1.00000
Fe3 Fe   1 a -0.00020 0.75793  0.75046  1.00000
Fe4 Fe   1 a -0.01104 0.23851  0.24604  1.00000
Fe5 Fe   1 a 0.49681  -0.00191 -0.00203 1.00000
Fe6 Fe   1 a -0.00038 -0.00003 -0.00001 1.00000
Ta1 Ta   1 a 0.00866  0.50475  0.50089  1.00000
Ta2 Ta   1 a 0.48358  0.10255  0.38513  1.00000
Ta3 Ta   1 a 0.15881  0.15166  0.67171  1.00000
Ta4 Ta   1 a 0.82235  0.31941  0.83804  1.00000
Ta5 Ta   1 a 0.15908  0.66794  0.15254  1.00000
Ta6 Ta   1 a 0.52056  0.64230  0.87608  1.00000
Ta7 Ta   1 a 0.47870  0.36371  0.11691  1.00000
Ta8 Ta   1 a 0.81854  0.83457  0.32297  1.00000
 
