# CIF file
# This file was generated by FINDSYM
# Harold T. Stokes, Branton J. Campbell, Dorian M. Hatch
# Brigham Young University, Provo, Utah, USA
 
data_findsym-output
_audit_creation_method FINDSYM
 
_symmetry_space_group_name_H-M "C 1 m 1"
_symmetry_Int_Tables_number 8
 
_cell_length_a    8.23289
_cell_length_b    4.74507
_cell_length_c    8.13851
_cell_angle_alpha 90.00000
_cell_angle_beta  109.68789
_cell_angle_gamma 90.00000
 
loop_
_space_group_symop_id
_space_group_symop_operation_xyz
1 x,y,z
2 x,-y,z
3 x+1/2,y+1/2,z
4 x+1/2,-y+1/2,z
 
loop_
_atom_site_label
_atom_site_type_symbol
_atom_site_symmetry_multiplicity
_atom_site_Wyckoff_label
_atom_site_fract_x
_atom_site_fract_y
_atom_site_fract_z
_atom_site_occupancy
Co1 Co   4 b -0.07821 0.25421 0.51274 1.00000
Co2 Co   2 a -0.00018 0.00000 0.00013 1.00000
Fe1 Fe   2 a 0.09704  0.00000 0.75781 1.00000
Fe2 Fe   2 a 0.17552  0.00000 0.50748 1.00000
Fe3 Fe   4 b 0.75650  0.24449 0.00530 1.00000
Fe4 Fe   2 a 0.25501  0.00000 0.25199 1.00000
Fe5 Fe   2 a -0.07413 0.00000 0.26266 1.00000
Ta1 Ta   2 a 0.45087  0.00000 0.83948 1.00000
Ta2 Ta   2 a 0.72757  0.00000 0.67128 1.00000
Ta3 Ta   2 a 0.58956  0.00000 0.25615 1.00000
 
