# CIF file
# This file was generated by FINDSYM
# Harold T. Stokes, Branton J. Campbell, Dorian M. Hatch
# Brigham Young University, Provo, Utah, USA
 
data_findsym-output
_audit_creation_method FINDSYM
 
_symmetry_space_group_name_H-M "P 1"
_symmetry_Int_Tables_number 1
 
_cell_length_a    4.70526
_cell_length_b    4.73514
_cell_length_c    7.69609
_cell_angle_alpha 89.95698
_cell_angle_beta  89.97422
_cell_angle_gamma 60.70097
 
loop_
_space_group_symop_id
_space_group_symop_operation_xyz
1 x,y,z
 
loop_
_atom_site_label
_atom_site_type_symbol
_atom_site_symmetry_multiplicity
_atom_site_Wyckoff_label
_atom_site_fract_x
_atom_site_fract_y
_atom_site_fract_z
_atom_site_occupancy
Co1 Co   1 a 0.51054 0.49017  -0.00149 1.00000
Co2 Co   1 a 0.34169 0.31722  0.49820  1.00000
Co3 Co   1 a 0.00029 0.00015  0.00026  1.00000
Fe1 Fe   1 a 0.17168 0.65817  0.24791  1.00000
Fe2 Fe   1 a 0.16622 0.66069  0.75250  1.00000
Fe3 Fe   1 a 0.00027 0.48912  -0.00101 1.00000
Fe4 Fe   1 a 0.83430 0.82453  0.49758  1.00000
Fe5 Fe   1 a 0.33894 0.82515  0.49913  1.00000
Fe6 Fe   1 a 0.83862 0.32907  0.30335  1.00000
Ta1 Ta   1 a 0.83636 0.32610  0.66435  1.00000
Ta2 Ta   1 a 0.50289 -0.00890 0.81679  1.00000
Ta3 Ta   1 a 0.50462 -0.00626 0.19603  1.00000
 
