# CIF file
# This file was generated by FINDSYM
# Harold T. Stokes, Branton J. Campbell, Dorian M. Hatch
# Brigham Young University, Provo, Utah, USA
 
data_findsym-output
_audit_creation_method FINDSYM
 
_symmetry_space_group_name_H-M "P 1 m 1"
_symmetry_Int_Tables_number 6
 
_cell_length_a    4.75924
_cell_length_b    4.70008
_cell_length_c    6.69942
_cell_angle_alpha 90.00000
_cell_angle_beta  90.93055
_cell_angle_gamma 90.00000
 
loop_
_space_group_symop_id
_space_group_symop_operation_xyz
1 x,y,z
2 x,-y,z
 
loop_
_atom_site_label
_atom_site_type_symbol
_atom_site_symmetry_multiplicity
_atom_site_Wyckoff_label
_atom_site_fract_x
_atom_site_fract_y
_atom_site_fract_z
_atom_site_occupancy
Co1 Co   1 a 0.76193  0.00000 0.62361  1.00000
Co2 Co   1 b 0.50624  0.50000 0.50047  1.00000
Co3 Co   1 a -0.00109 0.00000 -0.00045 1.00000
Fe1 Fe   1 b 0.00136  0.50000 0.49996  1.00000
Fe2 Fe   2 c 0.75500  0.75109 0.25197  1.00000
Fe3 Fe   1 a 0.50377  0.00000 0.00108  1.00000
Fe4 Fe   2 c 0.25171  0.75198 0.75215  1.00000
Ta1 Ta   1 b 0.75067  0.50000 0.85445  1.00000
Ta2 Ta   1 b 0.25477  0.50000 0.12268  1.00000
Ta3 Ta   1 a 0.25963  0.00000 0.39694  1.00000
 
