# CIF file
# This file was generated by FINDSYM
# Harold T. Stokes, Branton J. Campbell, Dorian M. Hatch
# Brigham Young University, Provo, Utah, USA
 
data_findsym-output
_audit_creation_method FINDSYM
 
_symmetry_space_group_name_H-M "P 1"
_symmetry_Int_Tables_number 1
 
_cell_length_a    4.54802
_cell_length_b    4.66461
_cell_length_c    8.15422
_cell_angle_alpha 88.28807
_cell_angle_beta  86.85053
_cell_angle_gamma 61.65420
 
loop_
_space_group_symop_id
_space_group_symop_operation_xyz
1 x,y,z
 
loop_
_atom_site_label
_atom_site_type_symbol
_atom_site_symmetry_multiplicity
_atom_site_Wyckoff_label
_atom_site_fract_x
_atom_site_fract_y
_atom_site_fract_z
_atom_site_occupancy
Co1 Co   1 a 0.31672  0.81317  0.25511  1.00000
Co2 Co   1 a -0.07473 0.81367  0.50551  1.00000
Co3 Co   1 a 0.00767  0.00347  -0.00128 1.00000
Fe1 Fe   1 a 0.66912  0.15547  0.26189  1.00000
Fe2 Fe   1 a 0.70235  0.15796  0.73869  1.00000
Fe3 Fe   1 a 0.37618  0.82547  0.74530  1.00000
Fe4 Fe   1 a 0.58531  0.50589  0.49853  1.00000
Fe5 Fe   1 a 0.50884  -0.00302 0.00543  1.00000
Fe6 Fe   1 a 0.50523  0.49451  -0.00132 1.00000
Ta1 Ta   1 a 0.23849  0.17424  0.49506  1.00000
Ta2 Ta   1 a -0.01666 0.50555  0.18497  1.00000
Ta3 Ta   1 a 0.02344  0.50198  0.81555  1.00000
 
