# CIF file
# This file was generated by FINDSYM
# Harold T. Stokes, Branton J. Campbell, Dorian M. Hatch
# Brigham Young University, Provo, Utah, USA
 
data_findsym-output
_audit_creation_method FINDSYM
 
_symmetry_space_group_name_H-M "P 1"
_symmetry_Int_Tables_number 1
 
_cell_length_a    5.11860
_cell_length_b    5.14620
_cell_length_c    6.76229
_cell_angle_alpha 72.87850
_cell_angle_beta  72.75694
_cell_angle_gamma 64.37335
 
loop_
_space_group_symop_id
_space_group_symop_operation_xyz
1 x,y,z
 
loop_
_atom_site_label
_atom_site_type_symbol
_atom_site_symmetry_multiplicity
_atom_site_Wyckoff_label
_atom_site_fract_x
_atom_site_fract_y
_atom_site_fract_z
_atom_site_occupancy
Co1 Co   1 a 0.53055  -0.00653 -0.00186 1.00000
Co2 Co   1 a 0.77927  0.27124  0.66122  1.00000
Co3 Co   1 a 0.00044  -0.00007 0.00014  1.00000
Fe1 Fe   1 a 0.60006  0.08769  0.33991  1.00000
Fe2 Fe   1 a 0.77922  0.78372  0.65980  1.00000
Fe3 Fe   1 a -0.01712 0.53231  0.00199  1.00000
Fe4 Fe   1 a 0.27428  0.77825  0.66068  1.00000
Fe5 Fe   1 a 0.08487  0.59722  0.34275  1.00000
Fe6 Fe   1 a 0.59828  0.60019  0.34375  1.00000
Ta1 Ta   1 a 0.26880  0.27051  0.69015  1.00000
Ta2 Ta   1 a 0.49817  0.50090  -0.00016 1.00000
Ta3 Ta   1 a 0.10737  0.10119  0.31113  1.00000
 
