# CIF file
# This file was generated by FINDSYM
# Harold T. Stokes, Branton J. Campbell, Dorian M. Hatch
# Brigham Young University, Provo, Utah, USA
 
data_findsym-output
_audit_creation_method FINDSYM
 
_symmetry_space_group_name_H-M "P 1"
_symmetry_Int_Tables_number 1
 
_cell_length_a    4.71271
_cell_length_b    4.71332
_cell_length_c    7.68834
_cell_angle_alpha 89.96644
_cell_angle_beta  89.96905
_cell_angle_gamma 60.53900
 
loop_
_space_group_symop_id
_space_group_symop_operation_xyz
1 x,y,z
 
loop_
_atom_site_label
_atom_site_type_symbol
_atom_site_symmetry_multiplicity
_atom_site_Wyckoff_label
_atom_site_fract_x
_atom_site_fract_y
_atom_site_fract_z
_atom_site_occupancy
Co1 Co   1 a 0.16863  0.17203  0.50038  1.00000
Co2 Co   1 a 0.15864  0.67456  0.69363  1.00000
Co3 Co   1 a 0.00025  -0.00016 -0.00014 1.00000
Fe1 Fe   1 a 0.82121  0.34918  0.24671  1.00000
Fe2 Fe   1 a 0.66148  0.67868  0.50322  1.00000
Fe3 Fe   1 a 0.66138  0.17425  0.50135  1.00000
Fe4 Fe   1 a 0.48760  0.51206  -0.00217 1.00000
Fe5 Fe   1 a 0.82932  0.34148  0.75100  1.00000
Fe6 Fe   1 a -0.00067 0.51237  -0.00033 1.00000
Ta1 Ta   1 a 0.15934  0.67755  0.33619  1.00000
Ta2 Ta   1 a 0.49376  0.01169  0.18300  1.00000
Ta3 Ta   1 a 0.49379  0.00775  0.80258  1.00000
 
