# CIF file
# This file was generated by FINDSYM
# Harold T. Stokes, Branton J. Campbell, Dorian M. Hatch
# Brigham Young University, Provo, Utah, USA
 
data_findsym-output
_audit_creation_method FINDSYM
 
_symmetry_space_group_name_H-M "P 1"
_symmetry_Int_Tables_number 1
 
_cell_length_a    5.09968
_cell_length_b    5.14924
_cell_length_c    6.70300
_cell_angle_alpha 73.81538
_cell_angle_beta  73.72738
_cell_angle_gamma 65.21271
 
loop_
_space_group_symop_id
_space_group_symop_operation_xyz
1 x,y,z
 
loop_
_atom_site_label
_atom_site_type_symbol
_atom_site_symmetry_multiplicity
_atom_site_Wyckoff_label
_atom_site_fract_x
_atom_site_fract_y
_atom_site_fract_z
_atom_site_occupancy
Co1 Co   1 a 0.40211  -0.08444 0.65448  1.00000
Co2 Co   1 a 0.39999  0.44476  0.65622  1.00000
Co3 Co   1 a 0.00057  0.00024  0.00031  1.00000
Fe1 Fe   1 a 0.68735  0.70258  0.32055  1.00000
Fe2 Fe   1 a 0.18746  0.19379  0.31318  1.00000
Fe3 Fe   1 a 0.49577  0.52364  -0.00726 1.00000
Fe4 Fe   1 a 0.00446  0.52149  0.00084  1.00000
Fe5 Fe   1 a -0.07167 0.88912  0.65525  1.00000
Fe6 Fe   1 a 0.19039  0.70018  0.31752  1.00000
Ta1 Ta   1 a -0.08237 0.39218  0.66085  1.00000
Ta2 Ta   1 a 0.67581  0.19954  0.33916  1.00000
Ta3 Ta   1 a 0.50306  0.02888  -0.03377 1.00000
 
