# CIF file
# This file was generated by FINDSYM
# Harold T. Stokes, Branton J. Campbell, Dorian M. Hatch
# Brigham Young University, Provo, Utah, USA
 
data_findsym-output
_audit_creation_method FINDSYM
 
_symmetry_space_group_name_H-M "P 1"
_symmetry_Int_Tables_number 1
 
_cell_length_a    5.08478
_cell_length_b    5.16844
_cell_length_c    6.77065
_cell_angle_alpha 72.54955
_cell_angle_beta  72.82039
_cell_angle_gamma 65.30917
 
loop_
_space_group_symop_id
_space_group_symop_operation_xyz
1 x,y,z
 
loop_
_atom_site_label
_atom_site_type_symbol
_atom_site_symmetry_multiplicity
_atom_site_Wyckoff_label
_atom_site_fract_x
_atom_site_fract_y
_atom_site_fract_z
_atom_site_occupancy
Co1 Co   1 a 0.30153  0.28588  0.67750 1.00000
Co2 Co   1 a 0.59487  0.56145  0.34690 1.00000
Co3 Co   1 a 0.00172  0.00260  0.00137 1.00000
Fe1 Fe   1 a 0.80221  0.78736  0.67765 1.00000
Fe2 Fe   1 a 0.80130  0.28647  0.67542 1.00000
Fe3 Fe   1 a -0.01090 0.47111  0.00516 1.00000
Fe4 Fe   1 a 0.49956  0.46531  0.00862 1.00000
Fe5 Fe   1 a 0.09486  0.10213  0.34139 1.00000
Fe6 Fe   1 a 0.60707  0.09528  0.34590 1.00000
Ta1 Ta   1 a 0.30455  0.78587  0.67271 1.00000
Ta2 Ta   1 a 0.50761  -0.03936 0.01938 1.00000
Ta3 Ta   1 a 0.08566  0.60590  0.33502 1.00000
 
