# CIF file
# This file was generated by FINDSYM
# Harold T. Stokes, Branton J. Campbell, Dorian M. Hatch
# Brigham Young University, Provo, Utah, USA
 
data_findsym-output
_audit_creation_method FINDSYM
 
_symmetry_space_group_name_H-M "C 1 m 1"
_symmetry_Int_Tables_number 8
 
_cell_length_a    8.20598
_cell_length_b    4.69992
_cell_length_c    7.78465
_cell_angle_alpha 90.00000
_cell_angle_beta  90.07864
_cell_angle_gamma 90.00000
 
loop_
_space_group_symop_id
_space_group_symop_operation_xyz
1 x,y,z
2 x,-y,z
3 x+1/2,y+1/2,z
4 x+1/2,-y+1/2,z
 
loop_
_atom_site_label
_atom_site_type_symbol
_atom_site_symmetry_multiplicity
_atom_site_Wyckoff_label
_atom_site_fract_x
_atom_site_fract_y
_atom_site_fract_z
_atom_site_occupancy
Co1 Co   2 a -0.00232 0.00000 0.49483  1.00000
Co2 Co   2 a 0.82620  0.00000 0.24586  1.00000
Co3 Co   2 a -0.00002 0.00000 -0.00029 1.00000
Fe1 Fe   2 a 0.66523  0.00000 0.55372  1.00000
Fe2 Fe   4 b -0.08463 0.25373 0.74454  1.00000
Fe3 Fe   2 a 0.16845  0.00000 0.74366  1.00000
Fe4 Fe   4 b 0.58226  0.24386 0.24738  1.00000
Ta1 Ta   2 a 0.33315  0.00000 0.06450  1.00000
Ta2 Ta   2 a 0.33151  0.00000 0.44235  1.00000
Ta3 Ta   2 a 0.66661  0.00000 -0.08711 1.00000
 
