# CIF file
# This file was generated by FINDSYM
# Harold T. Stokes, Branton J. Campbell, Dorian M. Hatch
# Brigham Young University, Provo, Utah, USA
 
data_findsym-output
_audit_creation_method FINDSYM
 
_symmetry_space_group_name_H-M "C 1 2 1"
_symmetry_Int_Tables_number 5
 
_cell_length_a    9.07366
_cell_length_b    5.17654
_cell_length_c    7.10996
_cell_angle_alpha 90.00000
_cell_angle_beta  116.25732
_cell_angle_gamma 90.00000
 
loop_
_space_group_symop_id
_space_group_symop_operation_xyz
1 x,y,z
2 -x,y,-z
3 x+1/2,y+1/2,z
4 -x+1/2,y+1/2,-z
 
loop_
_atom_site_label
_atom_site_type_symbol
_atom_site_symmetry_multiplicity
_atom_site_Wyckoff_label
_atom_site_fract_x
_atom_site_fract_y
_atom_site_fract_z
_atom_site_occupancy
Co1 Co   4 c 0.02397 0.24899  0.33238 1.00000
Co2 Co   2 a 0.00000 -0.00115 0.00000 1.00000
Fe1 Fe   4 c 0.78519 0.00396  0.33242 1.00000
Fe2 Fe   4 c 0.75262 0.24202  0.00616 1.00000
Fe3 Fe   4 c 0.51444 0.27232  0.32335 1.00000
Ta1 Ta   4 c 0.27761 0.00293  0.34368 1.00000
Ta2 Ta   2 a 0.00000 0.49185  0.00000 1.00000
 
