# CIF file
# This file was generated by FINDSYM
# Harold T. Stokes, Branton J. Campbell, Dorian M. Hatch
# Brigham Young University, Provo, Utah, USA
 
data_findsym-output
_audit_creation_method FINDSYM
 
_symmetry_space_group_name_H-M "P 1 m 1"
_symmetry_Int_Tables_number 6
 
_cell_length_a    5.07994
_cell_length_b    4.03277
_cell_length_c    7.45254
_cell_angle_alpha 90.00000
_cell_angle_beta  96.45567
_cell_angle_gamma 90.00000
 
loop_
_space_group_symop_id
_space_group_symop_operation_xyz
1 x,y,z
2 x,-y,z
 
loop_
_atom_site_label
_atom_site_type_symbol
_atom_site_symmetry_multiplicity
_atom_site_Wyckoff_label
_atom_site_fract_x
_atom_site_fract_y
_atom_site_fract_z
_atom_site_occupancy
Co1 Co   1 b 0.71353  0.50000 0.81007  1.00000
Co2 Co   1 a 0.43391  0.00000 0.62773  1.00000
Co3 Co   1 a 0.00035  0.00000 -0.00027 1.00000
Fe1 Fe   1 a 0.22547  0.00000 0.31962  1.00000
Fe2 Fe   1 b 0.10316  0.50000 0.48210  1.00000
Fe3 Fe   1 b 0.58608  0.50000 0.48008  1.00000
Fe4 Fe   1 b 0.21735  0.50000 0.81946  1.00000
Fe5 Fe   1 a 0.71457  0.00000 0.32352  1.00000
Fe6 Fe   1 b 0.36801  0.50000 0.16149  1.00000
Ta1 Ta   1 a 0.48665  0.00000 -0.03490 1.00000
Ta2 Ta   1 a -0.05982 0.00000 0.66012  1.00000
Ta3 Ta   1 b 0.87024  0.50000 0.15923  1.00000
 
