# CIF file
# This file was generated by FINDSYM
# Harold T. Stokes, Branton J. Campbell, Dorian M. Hatch
# Brigham Young University, Provo, Utah, USA
 
data_findsym-output
_audit_creation_method FINDSYM
 
_symmetry_space_group_name_H-M "P 1"
_symmetry_Int_Tables_number 1
 
_cell_length_a    5.16816
_cell_length_b    5.20571
_cell_length_c    6.39644
_cell_angle_alpha 88.95323
_cell_angle_beta  89.78176
_cell_angle_gamma 60.48232
 
loop_
_space_group_symop_id
_space_group_symop_operation_xyz
1 x,y,z
 
loop_
_atom_site_label
_atom_site_type_symbol
_atom_site_symmetry_multiplicity
_atom_site_Wyckoff_label
_atom_site_fract_x
_atom_site_fract_y
_atom_site_fract_z
_atom_site_occupancy
Co1 Co   1 a 0.83215 0.83411  0.66815  1.00000
Co2 Co   1 a 0.50202 0.49854  0.00134  1.00000
Co3 Co   1 a 0.00007 -0.00016 0.00010  1.00000
Fe1 Fe   1 a 0.33274 0.33266  0.66512  1.00000
Fe2 Fe   1 a 0.83093 0.33111  0.67030  1.00000
Fe3 Fe   1 a 0.17136 0.16114  0.33278  1.00000
Fe4 Fe   1 a 0.67360 0.66014  0.33658  1.00000
Fe5 Fe   1 a 0.17173 0.66421  0.33213  1.00000
Fe6 Fe   1 a 0.50248 -0.00095 -0.00020 1.00000
Ta1 Ta   1 a 0.67296 0.16113  0.33071  1.00000
Ta2 Ta   1 a 0.33078 0.83235  0.67383  1.00000
Ta3 Ta   1 a 0.00080 0.50128  -0.00241 1.00000
 
