# CIF file
# This file was generated by FINDSYM
# Harold T. Stokes, Branton J. Campbell, Dorian M. Hatch
# Brigham Young University, Provo, Utah, USA
 
data_findsym-output
_audit_creation_method FINDSYM
 
_symmetry_space_group_name_H-M "P -1"
_symmetry_Int_Tables_number 2
 
_cell_length_a    5.07879
_cell_length_b    5.17788
_cell_length_c    6.80275
_cell_angle_alpha 72.25716
_cell_angle_beta  72.30012
_cell_angle_gamma 64.89986
 
loop_
_space_group_symop_id
_space_group_symop_operation_xyz
1 x,y,z
2 -x,-y,-z
 
loop_
_atom_site_label
_atom_site_type_symbol
_atom_site_symmetry_multiplicity
_atom_site_Wyckoff_label
_atom_site_fract_x
_atom_site_fract_y
_atom_site_fract_z
_atom_site_occupancy
Co1 Co   2 i 0.79815 0.78056 0.66853 1.00000
Co2 Co   1 a 0.00000 0.00000 0.00000 1.00000
Fe1 Fe   2 i 0.29717 0.31714 0.66759 1.00000
Fe2 Fe   2 i 0.80480 0.31339 0.67123 1.00000
Fe3 Fe   1 e 0.50000 0.50000 0.00000 1.00000
Fe4 Fe   1 c 0.00000 0.50000 0.00000 1.00000
Ta1 Ta   2 i 0.28755 0.82184 0.65896 1.00000
Ta2 Ta   1 d 0.50000 0.00000 0.00000 1.00000
 
