# CIF file
# This file was generated by FINDSYM
# Harold T. Stokes, Branton J. Campbell, Dorian M. Hatch
# Brigham Young University, Provo, Utah, USA
 
data_findsym-output
_audit_creation_method FINDSYM
 
_symmetry_space_group_name_H-M "C 1 m 1"
_symmetry_Int_Tables_number 8
 
_cell_length_a    9.01884
_cell_length_b    5.18167
_cell_length_c    6.40315
_cell_angle_alpha 90.00000
_cell_angle_beta  90.32990
_cell_angle_gamma 90.00000
 
loop_
_space_group_symop_id
_space_group_symop_operation_xyz
1 x,y,z
2 x,-y,z
3 x+1/2,y+1/2,z
4 x+1/2,-y+1/2,z
 
loop_
_atom_site_label
_atom_site_type_symbol
_atom_site_symmetry_multiplicity
_atom_site_Wyckoff_label
_atom_site_fract_x
_atom_site_fract_y
_atom_site_fract_z
_atom_site_occupancy
Co1 Co   4 b 0.08249 0.24882 0.66978  1.00000
Co2 Co   2 a 0.00087 0.00000 -0.00083 1.00000
Fe1 Fe   4 b 0.41175 0.25174 0.33316  1.00000
Fe2 Fe   2 a 0.65900 0.00000 0.34086  1.00000
Fe3 Fe   4 b 0.24832 0.24971 0.00330  1.00000
Fe4 Fe   2 a 0.33207 0.00000 0.66669  1.00000
Ta1 Ta   2 a 0.50001 0.00000 -0.00531 1.00000
Ta2 Ta   2 a 0.16015 0.00000 0.33906  1.00000
Ta3 Ta   2 a 0.83401 0.00000 0.67333  1.00000
 
