# CIF file
# This file was generated by FINDSYM
# Harold T. Stokes, Branton J. Campbell, Dorian M. Hatch
# Brigham Young University, Provo, Utah, USA
 
data_findsym-output
_audit_creation_method FINDSYM
 
_symmetry_space_group_name_H-M "C 1 2 1"
_symmetry_Int_Tables_number 5
 
_cell_length_a    8.89672
_cell_length_b    5.15850
_cell_length_c    6.99917
_cell_angle_alpha 90.00000
_cell_angle_beta  104.54308
_cell_angle_gamma 90.00000
 
loop_
_space_group_symop_id
_space_group_symop_operation_xyz
1 x,y,z
2 -x,y,-z
3 x+1/2,y+1/2,z
4 -x+1/2,y+1/2,-z
 
loop_
_atom_site_label
_atom_site_type_symbol
_atom_site_symmetry_multiplicity
_atom_site_Wyckoff_label
_atom_site_fract_x
_atom_site_fract_y
_atom_site_fract_z
_atom_site_occupancy
Fe1 Fe   2 a 0.00000 0.77652 0.00000 1.00000
Fe2 Fe   4 c 0.62609 0.29667 0.74235 1.00000
Fe3 Fe   4 c 0.87245 0.06298 0.75550 1.00000
Fe4 Fe   2 b 0.00000 0.08906 0.50000 1.00000
Sc1 Sc   4 c 0.84903 0.29936 0.10153 1.00000
Sc2 Sc   4 c 0.65145 0.06072 0.39726 1.00000
 
