# CIF file
# This file was generated by FINDSYM
# Harold T. Stokes, Branton J. Campbell, Dorian M. Hatch
# Brigham Young University, Provo, Utah, USA
 
data_findsym-output
_audit_creation_method FINDSYM
 
_symmetry_space_group_name_H-M "P 1 2/m 1"
_symmetry_Int_Tables_number 10
 
_cell_length_a    7.18833
_cell_length_b    4.07512
_cell_length_c    8.66140
_cell_angle_alpha 90.00000
_cell_angle_beta  104.56107
_cell_angle_gamma 90.00000
 
loop_
_space_group_symop_id
_space_group_symop_operation_xyz
1 x,y,z
2 -x,y,-z
3 -x,-y,-z
4 x,-y,z
 
loop_
_atom_site_label
_atom_site_type_symbol
_atom_site_symmetry_multiplicity
_atom_site_Wyckoff_label
_atom_site_fract_x
_atom_site_fract_y
_atom_site_fract_z
_atom_site_occupancy
Fe1  Fe   1 e 0.50000 0.50000 0.00000 1.00000
Fe2  Fe   2 m 0.60107 0.00000 0.79861 1.00000
Fe3  Fe   2 n 0.79203 0.50000 0.89365 1.00000
Fe4  Fe   2 n 0.10285 0.50000 0.80278 1.00000
Fe5  Fe   2 n 0.30167 0.50000 0.40098 1.00000
Fe6  Fe   2 n 0.41211 0.50000 0.70621 1.00000
Fe7  Fe   2 m 0.89421 0.00000 0.69803 1.00000
Fe8  Fe   2 m 0.68930 0.00000 0.09168 1.00000
Fe9  Fe   1 g 0.50000 0.00000 0.50000 1.00000
Fe10 Fe   1 f 0.00000 0.50000 0.50000 1.00000
Ta1  Ta   2 m 0.79391 0.00000 0.39293 1.00000
Ta2  Ta   1 a 0.00000 0.00000 0.00000 1.00000
 
