# CIF file
# This file was generated by FINDSYM
# Harold T. Stokes, Branton J. Campbell, Dorian M. Hatch
# Brigham Young University, Provo, Utah, USA
 
data_findsym-output
_audit_creation_method FINDSYM
 
_symmetry_space_group_name_H-M "P 1"
_symmetry_Int_Tables_number 1
 
_cell_length_a    4.83644
_cell_length_b    7.11804
_cell_length_c    7.55126
_cell_angle_alpha 108.42390
_cell_angle_beta  93.52964
_cell_angle_gamma 90.03232
 
loop_
_space_group_symop_id
_space_group_symop_operation_xyz
1 x,y,z
 
loop_
_atom_site_label
_atom_site_type_symbol
_atom_site_symmetry_multiplicity
_atom_site_Wyckoff_label
_atom_site_fract_x
_atom_site_fract_y
_atom_site_fract_z
_atom_site_occupancy
Fe1  Fe   1 a 0.79701  0.60553  0.80231  1.00000
Fe2  Fe   1 a -0.09377 0.30122  0.89272  1.00000
Fe3  Fe   1 a 0.45665  0.15214  -0.05574 1.00000
Fe4  Fe   1 a 0.26021  0.74533  0.74717  1.00000
Fe5  Fe   1 a 0.51015  0.50327  0.50135  1.00000
Fe6  Fe   1 a 0.15206  0.04105  0.64993  1.00000
Fe7  Fe   1 a 0.39904  0.80184  0.40411  1.00000
Fe8  Fe   1 a 0.73445  0.24255  0.25109  1.00000
Fe9  Fe   1 a 0.30742  0.09236  0.30253  1.00000
Fe10 Fe   1 a -0.04140 0.65849  0.45476  1.00000
Fe11 Fe   1 a 0.11011  0.69536  0.10152  1.00000
Fe12 Fe   1 a 0.59450  0.19345  0.60094  1.00000
Fe13 Fe   1 a 0.54337  0.85257  0.04937  1.00000
Fe14 Fe   1 a 0.69498  0.89812  0.69503  1.00000
Fe15 Fe   1 a 0.19439  0.39442  0.20128  1.00000
Fe16 Fe   1 a 0.35493  0.44944  0.84837  1.00000
Fe17 Fe   1 a 0.85042  -0.05266 0.35187  1.00000
Ta1  Ta   1 a 0.65403  0.54818  0.15168  1.00000
Ta2  Ta   1 a 0.05025  0.34826  0.54758  1.00000
Ta3  Ta   1 a 0.00017  -0.00033 -0.00007 1.00000
 
