# CIF file
# This file was generated by FINDSYM
# Harold T. Stokes, Branton J. Campbell, Dorian M. Hatch
# Brigham Young University, Provo, Utah, USA
 
data_findsym-output
_audit_creation_method FINDSYM
 
_symmetry_space_group_name_H-M "P 1 m 1"
_symmetry_Int_Tables_number 6
 
_cell_length_a    7.11797
_cell_length_b    4.09990
_cell_length_c    8.71135
_cell_angle_alpha 90.00000
_cell_angle_beta  105.68343
_cell_angle_gamma 90.00000
 
loop_
_space_group_symop_id
_space_group_symop_operation_xyz
1 x,y,z
2 x,-y,z
 
loop_
_atom_site_label
_atom_site_type_symbol
_atom_site_symmetry_multiplicity
_atom_site_Wyckoff_label
_atom_site_fract_x
_atom_site_fract_y
_atom_site_fract_z
_atom_site_occupancy
Fe1  Fe   1 a 0.19949  0.00000 0.59571  1.00000
Fe2  Fe   1 b 0.29773  0.50000 0.39666  1.00000
Fe3  Fe   1 a 0.49101  0.00000 0.49202  1.00000
Fe4  Fe   1 a 0.80161  0.00000 0.39770  1.00000
Fe5  Fe   1 b -0.09749 0.50000 0.20468  1.00000
Fe6  Fe   1 a -0.09188 0.00000 0.69546  1.00000
Fe7  Fe   1 a 0.10132  0.00000 0.30444  1.00000
Fe8  Fe   1 b 0.10132  0.50000 0.79517  1.00000
Fe9  Fe   1 b 0.60030  0.50000 0.29845  1.00000
Fe10 Fe   1 a 0.59662  0.00000 0.79411  1.00000
Fe11 Fe   1 a 0.40013  0.00000 0.20158  1.00000
Fe12 Fe   1 b 0.39055  0.50000 0.69211  1.00000
Fe13 Fe   1 a 0.29784  0.00000 0.88938  1.00000
Fe14 Fe   1 b 0.20258  0.50000 0.10609  1.00000
Fe15 Fe   1 b 0.79972  0.50000 0.89833  1.00000
Fe16 Fe   1 a 0.70292  0.00000 0.10730  1.00000
Fe17 Fe   1 b 0.00580  0.50000 0.49634  1.00000
Ta1  Ta   1 b 0.69954  0.50000 0.59711  1.00000
Ta2  Ta   1 b 0.49940  0.50000 -0.00277 1.00000
Ta3  Ta   1 a 0.00090  0.00000 -0.00010 1.00000
 
