# CIF file
# This file was generated by FINDSYM
# Harold T. Stokes, Branton J. Campbell, Dorian M. Hatch
# Brigham Young University, Provo, Utah, USA
 
data_findsym-output
_audit_creation_method FINDSYM
 
_symmetry_space_group_name_H-M "P -1"
_symmetry_Int_Tables_number 2
 
_cell_length_a    4.85360
_cell_length_b    5.79029
_cell_length_c    9.16320
_cell_angle_alpha 90.26049
_cell_angle_beta  90.28947
_cell_angle_gamma 107.59026
 
loop_
_space_group_symop_id
_space_group_symop_operation_xyz
1 x,y,z
2 -x,-y,-z
 
loop_
_atom_site_label
_atom_site_type_symbol
_atom_site_symmetry_multiplicity
_atom_site_Wyckoff_label
_atom_site_fract_x
_atom_site_fract_y
_atom_site_fract_z
_atom_site_occupancy
Fe1 Fe   1 c 0.00000 0.50000  0.00000  1.00000
Fe2 Fe   2 i 0.60323 -0.09290 0.40047  1.00000
Fe3 Fe   2 i 0.60403 0.39311  0.40286  1.00000
Fe4 Fe   2 i 0.40527 0.85027  0.09870  1.00000
Fe5 Fe   2 i 0.78660 0.19688  0.20206  1.00000
Fe6 Fe   2 i 0.79234 0.69834  0.20362  1.00000
Fe7 Fe   2 i 0.79836 -0.05125 0.70002  1.00000
Fe8 Fe   2 i 0.58969 0.64640  -0.09763 1.00000
Fe9 Fe   2 i 0.00459 0.23844  0.50152  1.00000
Ta1 Ta   2 i 0.80182 0.45208  0.69893  1.00000
Ta2 Ta   1 a 0.00000 0.00000  0.00000  1.00000
 
