# CIF file
# This file was generated by FINDSYM
# Harold T. Stokes, Branton J. Campbell, Dorian M. Hatch
# Brigham Young University, Provo, Utah, USA
 
data_findsym-output
_audit_creation_method FINDSYM
 
_symmetry_space_group_name_H-M "P 1 m 1"
_symmetry_Int_Tables_number 6
 
_cell_length_a    7.61406
_cell_length_b    4.09126
_cell_length_c    8.17393
_cell_angle_alpha 90.00000
_cell_angle_beta  105.59709
_cell_angle_gamma 90.00000
 
loop_
_space_group_symop_id
_space_group_symop_operation_xyz
1 x,y,z
2 x,-y,z
 
loop_
_atom_site_label
_atom_site_type_symbol
_atom_site_symmetry_multiplicity
_atom_site_Wyckoff_label
_atom_site_fract_x
_atom_site_fract_y
_atom_site_fract_z
_atom_site_occupancy
Fe1  Fe   1 a -0.00376 0.00000 0.49889  1.00000
Fe2  Fe   1 b -0.00540 0.50000 0.25152  1.00000
Fe3  Fe   1 a 0.19314  0.00000 0.30540  1.00000
Fe4  Fe   1 a 0.60726  0.00000 0.40177  1.00000
Fe5  Fe   1 b 0.79307  0.50000 -0.05169 1.00000
Fe6  Fe   1 a 0.79520  0.00000 0.69403  1.00000
Fe7  Fe   1 a 0.79561  0.00000 0.20359  1.00000
Fe8  Fe   1 b -0.00607 0.50000 0.74544  1.00000
Fe9  Fe   1 b 0.60779  0.50000 0.15263  1.00000
Fe10 Fe   1 a 0.39973  0.00000 0.60001  1.00000
Fe11 Fe   1 a 0.40324  0.00000 0.10078  1.00000
Fe12 Fe   1 b 0.18668  0.50000 0.54628  1.00000
Fe13 Fe   1 a 0.19203  0.00000 0.79085  1.00000
Fe14 Fe   1 b 0.19903  0.50000 0.05024  1.00000
Fe15 Fe   1 b 0.60850  0.50000 0.65198  1.00000
Fe16 Fe   1 a 0.60500  0.00000 -0.09833 1.00000
Fe17 Fe   1 b 0.80073  0.50000 0.45015  1.00000
Ta1  Ta   1 b 0.39642  0.50000 0.84711  1.00000
Ta2  Ta   1 b 0.39916  0.50000 0.35180  1.00000
Ta3  Ta   1 a -0.00018 0.00000 -0.00004 1.00000
 
