# CIF file
# This file was generated by FINDSYM
# Harold T. Stokes, Branton J. Campbell, Dorian M. Hatch
# Brigham Young University, Provo, Utah, USA
 
data_findsym-output
_audit_creation_method FINDSYM
 
_symmetry_space_group_name_H-M "P -1"
_symmetry_Int_Tables_number 2
 
_cell_length_a    2.52870
_cell_length_b    4.70779
_cell_length_c    8.59035
_cell_angle_alpha 102.71199
_cell_angle_beta  93.14760
_cell_angle_gamma 97.55894
 
loop_
_space_group_symop_id
_space_group_symop_operation_xyz
1 x,y,z
2 -x,-y,-z
 
loop_
_atom_site_label
_atom_site_type_symbol
_atom_site_symmetry_multiplicity
_atom_site_Wyckoff_label
_atom_site_fract_x
_atom_site_fract_y
_atom_site_fract_z
_atom_site_occupancy
Fe1 Fe   2 i -0.01690 0.71373 0.13014 1.00000
Fe2 Fe   2 i 0.84016  0.07322 0.38015 1.00000
Fe3 Fe   2 i 0.43661  0.76793 0.85692 1.00000
Fe4 Fe   2 i 0.65867  0.42492 0.62215 1.00000
N1  N    1 a 0.00000  0.00000 0.00000 1.00000
 
