# CIF file
# This file was generated by FINDSYM
# Harold T. Stokes, Branton J. Campbell, Dorian M. Hatch
# Brigham Young University, Provo, Utah, USA
 
data_findsym-output
_audit_creation_method FINDSYM
 
_symmetry_space_group_name_H-M "P 1 m 1"
_symmetry_Int_Tables_number 6
 
_cell_length_a    4.08327
_cell_length_b    2.81813
_cell_length_c    8.68458
_cell_angle_alpha 90.00000
_cell_angle_beta  99.26772
_cell_angle_gamma 90.00000
 
loop_
_space_group_symop_id
_space_group_symop_operation_xyz
1 x,y,z
2 x,-y,z
 
loop_
_atom_site_label
_atom_site_type_symbol
_atom_site_symmetry_multiplicity
_atom_site_Wyckoff_label
_atom_site_fract_x
_atom_site_fract_y
_atom_site_fract_z
_atom_site_occupancy
Fe1 Fe   1 a 0.06073  0.00000 0.37852 1.00000
Fe2 Fe   1 b 0.55930  0.50000 0.37266 1.00000
Fe3 Fe   1 b 0.14142  0.50000 0.60969 1.00000
Fe4 Fe   1 a 0.47984  0.00000 0.12405 1.00000
Fe5 Fe   1 b 0.72313  0.50000 0.86064 1.00000
Fe6 Fe   1 b -0.01419 0.50000 0.14880 1.00000
Fe7 Fe   1 a 0.22616  0.00000 0.83362 1.00000
Fe8 Fe   1 a 0.64127  0.00000 0.61212 1.00000
N1  N    1 a -0.00126 0.00000 0.00020 1.00000
 
