# CIF file
# This file was generated by FINDSYM
# Harold T. Stokes, Branton J. Campbell, Dorian M. Hatch
# Brigham Young University, Provo, Utah, USA
 
data_findsym-output
_audit_creation_method FINDSYM
 
_symmetry_space_group_name_H-M "P -1"
_symmetry_Int_Tables_number 2
 
_cell_length_a    4.20849
_cell_length_b    4.74848
_cell_length_c    5.61890
_cell_angle_alpha 72.52849
_cell_angle_beta  89.96916
_cell_angle_gamma 68.99392
 
loop_
_space_group_symop_id
_space_group_symop_operation_xyz
1 x,y,z
2 -x,-y,-z
 
loop_
_atom_site_label
_atom_site_type_symbol
_atom_site_symmetry_multiplicity
_atom_site_Wyckoff_label
_atom_site_fract_x
_atom_site_fract_y
_atom_site_fract_z
_atom_site_occupancy
Fe1 Fe   2 i 0.38801 0.75167 0.55984 1.00000
Fe2 Fe   2 i 0.89114 0.74659 0.31248 1.00000
Fe3 Fe   2 i 0.43396 0.71370 0.07395 1.00000
Fe4 Fe   2 i 0.88815 0.75458 0.81166 1.00000
N1  N    1 a 0.00000 0.00000 0.00000 1.00000
 
