# CIF file
# This file was generated by FINDSYM
# Harold T. Stokes, Branton J. Campbell, Dorian M. Hatch
# Brigham Young University, Provo, Utah, USA
 
data_findsym-output
_audit_creation_method FINDSYM
 
_symmetry_space_group_name_H-M "P 1"
_symmetry_Int_Tables_number 1
 
_cell_length_a    2.51532
_cell_length_b    4.83867
_cell_length_c    8.35480
_cell_angle_alpha 95.85828
_cell_angle_beta  91.58935
_cell_angle_gamma 103.62591
 
loop_
_space_group_symop_id
_space_group_symop_operation_xyz
1 x,y,z
 
loop_
_atom_site_label
_atom_site_type_symbol
_atom_site_symmetry_multiplicity
_atom_site_Wyckoff_label
_atom_site_fract_x
_atom_site_fract_y
_atom_site_fract_z
_atom_site_occupancy
Fe1 Fe   1 a 0.74176  0.67080  0.82796  1.00000
Fe2 Fe   1 a 0.89776  0.38518  0.58053  1.00000
Fe3 Fe   1 a 0.39599  0.88342  0.58262  1.00000
Fe4 Fe   1 a 0.60076  0.58604  0.34368  1.00000
Fe5 Fe   1 a 0.10254  0.08792  0.34045  1.00000
Fe6 Fe   1 a 0.38110  0.77888  0.10433  1.00000
Fe7 Fe   1 a 0.70994  0.30665  0.09105  1.00000
Fe8 Fe   1 a 0.15789  0.18951  0.81286  1.00000
N1  N    1 a -0.00003 -0.00045 -0.00028 1.00000
 
