# CIF file
# This file was generated by FINDSYM
# Harold T. Stokes, Branton J. Campbell, Dorian M. Hatch
# Brigham Young University, Provo, Utah, USA
 
data_findsym-output
_audit_creation_method FINDSYM
 
_symmetry_space_group_name_H-M "P -1"
_symmetry_Int_Tables_number 2
 
_cell_length_a    2.53759
_cell_length_b    6.15444
_cell_length_c    6.44038
_cell_angle_alpha 83.19316
_cell_angle_beta  86.97236
_cell_angle_gamma 81.07954
 
loop_
_space_group_symop_id
_space_group_symop_operation_xyz
1 x,y,z
2 -x,-y,-z
 
loop_
_atom_site_label
_atom_site_type_symbol
_atom_site_symmetry_multiplicity
_atom_site_Wyckoff_label
_atom_site_fract_x
_atom_site_fract_y
_atom_site_fract_z
_atom_site_occupancy
Fe1 Fe   2 i 0.88734 0.81005  0.55881  1.00000
Fe2 Fe   2 i 0.12520 0.68983  -0.06065 1.00000
Fe3 Fe   2 i 0.52139 -0.07219 0.21463  1.00000
Fe4 Fe   2 i 0.36416 0.55246  0.31448  1.00000
N1  N    1 a 0.00000 0.00000  0.00000  1.00000
 
