# CIF file
# This file was generated by FINDSYM
# Harold T. Stokes, Branton J. Campbell, Dorian M. Hatch
# Brigham Young University, Provo, Utah, USA
 
data_findsym-output
_audit_creation_method FINDSYM
 
_symmetry_space_group_name_H-M "P -1"
_symmetry_Int_Tables_number 2
 
_cell_length_a    4.21342
_cell_length_b    4.71736
_cell_length_c    5.06166
_cell_angle_alpha 97.55817
_cell_angle_beta  93.97941
_cell_angle_gamma 92.24054
 
loop_
_space_group_symop_id
_space_group_symop_operation_xyz
1 x,y,z
2 -x,-y,-z
 
loop_
_atom_site_label
_atom_site_type_symbol
_atom_site_symmetry_multiplicity
_atom_site_Wyckoff_label
_atom_site_fract_x
_atom_site_fract_y
_atom_site_fract_z
_atom_site_occupancy
Fe1 Fe   2 i 0.24682 0.36762 0.05959 1.00000
Fe2 Fe   2 i 0.74439 0.62885 0.44106 1.00000
Fe3 Fe   2 i 0.75718 0.13067 0.69906 1.00000
Fe4 Fe   2 i 0.28351 0.85045 0.77313 1.00000
N1  N    1 a 0.00000 0.00000 0.00000 1.00000
 
