# CIF file
# This file was generated by FINDSYM
# Harold T. Stokes, Branton J. Campbell, Dorian M. Hatch
# Brigham Young University, Provo, Utah, USA
 
data_findsym-output
_audit_creation_method FINDSYM
 
_symmetry_space_group_name_H-M "P -1"
_symmetry_Int_Tables_number 2
 
_cell_length_a    4.74861
_cell_length_b    5.04916
_cell_length_c    5.05987
_cell_angle_alpha 104.18894
_cell_angle_beta  117.86570
_cell_angle_gamma 97.77768
 
loop_
_space_group_symop_id
_space_group_symop_operation_xyz
1 x,y,z
2 -x,-y,-z
 
loop_
_atom_site_label
_atom_site_type_symbol
_atom_site_symmetry_multiplicity
_atom_site_Wyckoff_label
_atom_site_fract_x
_atom_site_fract_y
_atom_site_fract_z
_atom_site_occupancy
Fe1 Fe   2 i 0.50524  0.37946 0.75223 1.00000
Fe2 Fe   2 i 0.00482  0.84403 0.28851 1.00000
Fe3 Fe   2 i 0.51385  0.87548 0.75648 1.00000
Fe4 Fe   2 i -0.00311 0.36060 0.25244 1.00000
N1  N    1 a 0.00000  0.00000 0.00000 1.00000
 
