# CIF file
# This file was generated by FINDSYM
# Harold T. Stokes, Branton J. Campbell, Dorian M. Hatch
# Brigham Young University, Provo, Utah, USA
 
data_findsym-output
_audit_creation_method FINDSYM
 
_symmetry_space_group_name_H-M "C 1 2 1"
_symmetry_Int_Tables_number 5
 
_cell_length_a    8.99019
_cell_length_b    4.57253
_cell_length_c    5.25636
_cell_angle_alpha 90.00000
_cell_angle_beta  107.04811
_cell_angle_gamma 90.00000
 
loop_
_space_group_symop_id
_space_group_symop_operation_xyz
1 x,y,z
2 -x,y,-z
3 x+1/2,y+1/2,z
4 -x+1/2,y+1/2,-z
 
loop_
_atom_site_label
_atom_site_type_symbol
_atom_site_symmetry_multiplicity
_atom_site_Wyckoff_label
_atom_site_fract_x
_atom_site_fract_y
_atom_site_fract_z
_atom_site_occupancy
Fe1 Fe   4 c -0.00330 0.22426 0.24603 1.00000
Fe2 Fe   2 a 0.00000  0.70276 0.00000 1.00000
Fe3 Fe   2 b 0.00000  0.70923 0.50000 1.00000
Fe4 Fe   4 c 0.25163  0.03823 0.63143 1.00000
Fe5 Fe   4 c 0.74715  0.04723 0.88312 1.00000
N1  N    4 c 0.37482  0.37534 0.68956 1.00000
 
