# CIF file
# This file was generated by FINDSYM
# Harold T. Stokes, Branton J. Campbell, Dorian M. Hatch
# Brigham Young University, Provo, Utah, USA
 
data_findsym-output
_audit_creation_method FINDSYM
 
_symmetry_space_group_name_H-M "C 1 m 1"
_symmetry_Int_Tables_number 8
 
_cell_length_a    8.33034
_cell_length_b    6.19749
_cell_length_c    4.12667
_cell_angle_alpha 90.00000
_cell_angle_beta  93.51763
_cell_angle_gamma 90.00000
 
loop_
_space_group_symop_id
_space_group_symop_operation_xyz
1 x,y,z
2 x,-y,z
3 x+1/2,y+1/2,z
4 x+1/2,-y+1/2,z
 
loop_
_atom_site_label
_atom_site_type_symbol
_atom_site_symmetry_multiplicity
_atom_site_Wyckoff_label
_atom_site_fract_x
_atom_site_fract_y
_atom_site_fract_z
_atom_site_occupancy
Fe1 Fe   2 a 0.54471 0.00000 0.42682  1.00000
Fe2 Fe   4 b 0.76312 0.25938 0.47677  1.00000
Fe3 Fe   2 a 0.00667 0.00000 0.46975  1.00000
Fe4 Fe   2 a 0.22457 0.00000 -0.00396 1.00000
Fe5 Fe   4 b 0.00453 0.29167 -0.05119 1.00000
Fe6 Fe   2 a 0.76898 0.00000 -0.02456 1.00000
N1  N    2 a 0.38555 0.00000 0.71068  1.00000
N2  N    2 a 0.00054 0.00000 0.00244  1.00000
 
