# CIF file
# This file was generated by FINDSYM
# Harold T. Stokes, Branton J. Campbell, Dorian M. Hatch
# Brigham Young University, Provo, Utah, USA
 
data_findsym-output
_audit_creation_method FINDSYM
 
_symmetry_space_group_name_H-M "P 1"
_symmetry_Int_Tables_number 1
 
_cell_length_a    4.12309
_cell_length_b    5.02178
_cell_length_c    5.22459
_cell_angle_alpha 102.15689
_cell_angle_beta  92.66091
_cell_angle_gamma 91.63920
 
loop_
_space_group_symop_id
_space_group_symop_operation_xyz
1 x,y,z
 
loop_
_atom_site_label
_atom_site_type_symbol
_atom_site_symmetry_multiplicity
_atom_site_Wyckoff_label
_atom_site_fract_x
_atom_site_fract_y
_atom_site_fract_z
_atom_site_occupancy
Fe1 Fe   1 a 0.27581  0.86428 0.74405  1.00000
Fe2 Fe   1 a 0.24762  0.87457 0.27469  1.00000
Fe3 Fe   1 a 0.25560  0.36742 0.05829  1.00000
Fe4 Fe   1 a 0.74923  0.12051 0.74556  1.00000
Fe5 Fe   1 a 0.75861  0.64767 -0.08548 1.00000
Fe6 Fe   1 a 0.25220  0.37959 0.55712  1.00000
Fe7 Fe   1 a 0.74237  0.67942 0.40130  1.00000
Fe8 Fe   1 a 0.73245  0.15578 0.25026  1.00000
N1  N    1 a 0.74986  0.39808 0.57382  1.00000
N2  N    1 a -0.00044 0.00053 -0.00020 1.00000
 
