# CIF file
# This file was generated by FINDSYM
# Harold T. Stokes, Branton J. Campbell, Dorian M. Hatch
# Brigham Young University, Provo, Utah, USA
 
data_findsym-output
_audit_creation_method FINDSYM
 
_symmetry_space_group_name_H-M "P 1"
_symmetry_Int_Tables_number 1
 
_cell_length_a    4.94316
_cell_length_b    5.04509
_cell_length_c    5.13876
_cell_angle_alpha 70.69357
_cell_angle_beta  62.00469
_cell_angle_gamma 87.52657
 
loop_
_space_group_symop_id
_space_group_symop_operation_xyz
1 x,y,z
 
loop_
_atom_site_label
_atom_site_type_symbol
_atom_site_symmetry_multiplicity
_atom_site_Wyckoff_label
_atom_site_fract_x
_atom_site_fract_y
_atom_site_fract_z
_atom_site_occupancy
Fe1 Fe   1 a 0.81997  0.67033  0.37027 1.00000
Fe2 Fe   1 a 0.79274  0.22581  0.80691 1.00000
Fe3 Fe   1 a 0.34647  0.88378  0.31100 1.00000
Fe4 Fe   1 a 0.28643  0.34744  0.79588 1.00000
Fe5 Fe   1 a 0.88332  0.73145  0.84122 1.00000
Fe6 Fe   1 a 0.38001  0.86259  0.80317 1.00000
Fe7 Fe   1 a 0.34377  0.39337  0.28477 1.00000
Fe8 Fe   1 a 0.81926  0.18431  0.32759 1.00000
N1  N    1 a 0.58302  0.53927  0.81765 1.00000
N2  N    1 a -0.00043 -0.00169 0.00040 1.00000
 
