# CIF file
# This file was generated by FINDSYM
# Harold T. Stokes, Branton J. Campbell, Dorian M. Hatch
# Brigham Young University, Provo, Utah, USA
 
data_findsym-output
_audit_creation_method FINDSYM
 
_symmetry_space_group_name_H-M "P -1"
_symmetry_Int_Tables_number 2
 
_cell_length_a    4.65689
_cell_length_b    5.00424
_cell_length_c    5.18764
_cell_angle_alpha 103.25462
_cell_angle_beta  91.04079
_cell_angle_gamma 117.20407
 
loop_
_space_group_symop_id
_space_group_symop_operation_xyz
1 x,y,z
2 -x,-y,-z
 
loop_
_atom_site_label
_atom_site_type_symbol
_atom_site_symmetry_multiplicity
_atom_site_Wyckoff_label
_atom_site_fract_x
_atom_site_fract_y
_atom_site_fract_z
_atom_site_occupancy
Fe1 Fe   2 i -0.03963 0.72821 0.82745  1.00000
Fe2 Fe   2 i 0.54444  0.26436 -0.05544 1.00000
Fe3 Fe   2 i 0.54026  0.25854 0.42959  1.00000
Fe4 Fe   2 i 0.04624  0.25198 0.68826  1.00000
N1  N    2 i 0.75054  0.00511 0.36298  1.00000
 
