# CIF file
# This file was generated by FINDSYM
# Harold T. Stokes, Branton J. Campbell, Dorian M. Hatch
# Brigham Young University, Provo, Utah, USA
 
data_findsym-output
_audit_creation_method FINDSYM
 
_symmetry_space_group_name_H-M "P -1"
_symmetry_Int_Tables_number 2
 
_cell_length_a    4.52917
_cell_length_b    4.59440
_cell_length_c    5.31843
_cell_angle_alpha 106.16747
_cell_angle_beta  90.32000
_cell_angle_gamma 100.91058
 
loop_
_space_group_symop_id
_space_group_symop_operation_xyz
1 x,y,z
2 -x,-y,-z
 
loop_
_atom_site_label
_atom_site_type_symbol
_atom_site_symmetry_multiplicity
_atom_site_Wyckoff_label
_atom_site_fract_x
_atom_site_fract_y
_atom_site_fract_z
_atom_site_occupancy
Fe1 Fe   2 i 0.73897 -0.00332 0.12579 1.00000
Fe2 Fe   2 i 0.48252 0.48829  0.74718 1.00000
Fe3 Fe   2 i 0.25424 -0.00660 0.37825 1.00000
Fe4 Fe   1 g 0.00000 0.50000  0.50000 1.00000
Fe5 Fe   1 c 0.00000 0.50000  0.00000 1.00000
N1  N    2 i 0.13523 0.25432  0.19429 1.00000
 
