# CIF file
# This file was generated by FINDSYM
# Harold T. Stokes, Branton J. Campbell, Dorian M. Hatch
# Brigham Young University, Provo, Utah, USA
 
data_findsym-output
_audit_creation_method FINDSYM
 
_symmetry_space_group_name_H-M "P -1"
_symmetry_Int_Tables_number 2
 
_cell_length_a    4.76757
_cell_length_b    4.79339
_cell_length_c    5.14985
_cell_angle_alpha 63.65892
_cell_angle_beta  84.56805
_cell_angle_gamma 84.36938
 
loop_
_space_group_symop_id
_space_group_symop_operation_xyz
1 x,y,z
2 -x,-y,-z
 
loop_
_atom_site_label
_atom_site_type_symbol
_atom_site_symmetry_multiplicity
_atom_site_Wyckoff_label
_atom_site_fract_x
_atom_site_fract_y
_atom_site_fract_z
_atom_site_occupancy
Fe1 Fe   2 i 0.89337 0.75283 0.03628 1.00000
Fe2 Fe   2 i 0.89267 0.78485 0.50480 1.00000
Fe3 Fe   2 i 0.37890 0.74974 0.29837 1.00000
Fe4 Fe   2 i 0.41244 0.77140 0.77279 1.00000
N1  N    2 i 0.24166 0.49835 0.13625 1.00000
 
