# CIF file
# This file was generated by FINDSYM
# Harold T. Stokes, Branton J. Campbell, Dorian M. Hatch
# Brigham Young University, Provo, Utah, USA
 
data_findsym-output
_audit_creation_method FINDSYM
 
_symmetry_space_group_name_H-M "P 1"
_symmetry_Int_Tables_number 1
 
_cell_length_a    4.76094
_cell_length_b    5.00773
_cell_length_c    5.05232
_cell_angle_alpha 95.73232
_cell_angle_beta  98.35584
_cell_angle_gamma 115.71518
 
loop_
_space_group_symop_id
_space_group_symop_operation_xyz
1 x,y,z
 
loop_
_atom_site_label
_atom_site_type_symbol
_atom_site_symmetry_multiplicity
_atom_site_Wyckoff_label
_atom_site_fract_x
_atom_site_fract_y
_atom_site_fract_z
_atom_site_occupancy
Fe1 Fe   1 a 0.19532 -0.06138 0.36446  1.00000
Fe2 Fe   1 a 0.67635 0.44294  0.37954  1.00000
Fe3 Fe   1 a 0.08844 0.37615  0.16216  1.00000
Fe4 Fe   1 a 0.28087 0.52223  0.67150  1.00000
Fe5 Fe   1 a 0.40915 0.16638  0.88452  1.00000
Fe6 Fe   1 a 0.89965 0.61313  0.85729  1.00000
Fe7 Fe   1 a 0.61155 0.85227  0.11077  1.00000
Fe8 Fe   1 a 0.78708 0.03762  0.65139  1.00000
N1  N    1 a 0.43558 0.71074  0.39581  1.00000
N2  N    1 a 0.00032 0.00043  -0.00071 1.00000
 
