# CIF file
# This file was generated by FINDSYM
# Harold T. Stokes, Branton J. Campbell, Dorian M. Hatch
# Brigham Young University, Provo, Utah, USA
 
data_findsym-output
_audit_creation_method FINDSYM
 
_symmetry_space_group_name_H-M "P 1 21 1"
_symmetry_Int_Tables_number 4
 
_cell_length_a    4.72696
_cell_length_b    4.25656
_cell_length_c    6.61428
_cell_angle_alpha 90.00000
_cell_angle_beta  105.91617
_cell_angle_gamma 90.00000
 
loop_
_space_group_symop_id
_space_group_symop_operation_xyz
1 x,y,z
2 -x,y+1/2,-z
 
loop_
_atom_site_label
_atom_site_type_symbol
_atom_site_symmetry_multiplicity
_atom_site_Wyckoff_label
_atom_site_fract_x
_atom_site_fract_y
_atom_site_fract_z
_atom_site_occupancy
Fe1 Fe   2 a 0.77116  0.08294 0.20397 1.00000
Fe2 Fe   2 a 0.15577  0.09018 0.03330 1.00000
Fe3 Fe   2 a -0.04525 0.11696 0.62951 1.00000
Fe4 Fe   2 a 0.37546  0.13285 0.40876 1.00000
Fe5 Fe   2 a 0.54473  0.09943 0.83739 1.00000
N1  N    2 a 0.28485  0.86619 0.60072 1.00000
 
