# CIF file
# This file was generated by FINDSYM
# Harold T. Stokes, Branton J. Campbell, Dorian M. Hatch
# Brigham Young University, Provo, Utah, USA
 
data_findsym-output
_audit_creation_method FINDSYM
 
_symmetry_space_group_name_H-M "P 1"
_symmetry_Int_Tables_number 1
 
_cell_length_a    4.74624
_cell_length_b    4.97524
_cell_length_c    6.38964
_cell_angle_alpha 79.56939
_cell_angle_beta  73.36616
_cell_angle_gamma 63.80551
 
loop_
_space_group_symop_id
_space_group_symop_operation_xyz
1 x,y,z
 
loop_
_atom_site_label
_atom_site_type_symbol
_atom_site_symmetry_multiplicity
_atom_site_Wyckoff_label
_atom_site_fract_x
_atom_site_fract_y
_atom_site_fract_z
_atom_site_occupancy
Fe1  Fe   1 a 0.51121 0.22755  0.27629 1.00000
Fe2  Fe   1 a 0.07168 0.04052  0.46609 1.00000
Fe3  Fe   1 a 0.07235 0.75256  0.21814 1.00000
Fe4  Fe   1 a 0.58681 0.58552  0.44595 1.00000
Fe5  Fe   1 a 0.08395 0.48208  0.63665 1.00000
Fe6  Fe   1 a 0.57568 -0.01552 0.64890 1.00000
Fe7  Fe   1 a 0.06163 0.29861  0.05235 1.00000
Fe8  Fe   1 a 0.12952 0.84515  0.81266 1.00000
Fe9  Fe   1 a 0.58956 0.37939  0.84743 1.00000
Fe10 Fe   1 a 0.58745 0.80528  0.03627 1.00000
N1   N    1 a 0.83331 0.06169  0.03899 1.00000
N2   N    1 a 0.05873 0.40330  0.35033 1.00000
 
