# CIF file
# This file was generated by FINDSYM
# Harold T. Stokes, Branton J. Campbell, Dorian M. Hatch
# Brigham Young University, Provo, Utah, USA
 
data_findsym-output
_audit_creation_method FINDSYM
 
_symmetry_space_group_name_H-M "P 1"
_symmetry_Int_Tables_number 1
 
_cell_length_a    4.67336
_cell_length_b    4.95257
_cell_length_c    6.19785
_cell_angle_alpha 72.51954
_cell_angle_beta  70.25056
_cell_angle_gamma 86.29580
 
loop_
_space_group_symop_id
_space_group_symop_operation_xyz
1 x,y,z
 
loop_
_atom_site_label
_atom_site_type_symbol
_atom_site_symmetry_multiplicity
_atom_site_Wyckoff_label
_atom_site_fract_x
_atom_site_fract_y
_atom_site_fract_z
_atom_site_occupancy
Fe1  Fe   1 a 0.43365 0.18596  0.88496  1.00000
Fe2  Fe   1 a 0.21963 0.83505  0.27855  1.00000
Fe3  Fe   1 a 0.00738 0.46287  0.13251  1.00000
Fe4  Fe   1 a 0.17963 -0.08445 0.72417  1.00000
Fe5  Fe   1 a 0.58594 0.66856  -0.08421 1.00000
Fe6  Fe   1 a 0.80747 0.07102  0.52969  1.00000
Fe7  Fe   1 a 0.41212 0.27272  0.33598  1.00000
Fe8  Fe   1 a 0.61467 0.62645  0.50612  1.00000
Fe9  Fe   1 a 0.01891 0.43495  0.67676  1.00000
Fe10 Fe   1 a 0.82243 0.01716  0.08202  1.00000
N1   N    1 a 0.62973 0.64800  0.20333  1.00000
N2   N    1 a 0.30030 0.54899  0.80821  1.00000
 
