# CIF file
# This file was generated by FINDSYM
# Harold T. Stokes, Branton J. Campbell, Dorian M. Hatch
# Brigham Young University, Provo, Utah, USA
 
data_findsym-output
_audit_creation_method FINDSYM
 
_symmetry_space_group_name_H-M "P -1"
_symmetry_Int_Tables_number 2
 
_cell_length_a    4.28969
_cell_length_b    5.12046
_cell_length_c    6.29922
_cell_angle_alpha 76.44170
_cell_angle_beta  72.76882
_cell_angle_gamma 83.37318
 
loop_
_space_group_symop_id
_space_group_symop_operation_xyz
1 x,y,z
2 -x,-y,-z
 
loop_
_atom_site_label
_atom_site_type_symbol
_atom_site_symmetry_multiplicity
_atom_site_Wyckoff_label
_atom_site_fract_x
_atom_site_fract_y
_atom_site_fract_z
_atom_site_occupancy
Fe1 Fe   2 i 0.72800  0.08765 0.58097 1.00000
Fe2 Fe   2 i -0.05789 0.38455 0.18657 1.00000
Fe3 Fe   2 i 0.69716  0.55653 0.60304 1.00000
Fe4 Fe   2 i 0.51299  0.24733 0.00195 1.00000
Fe5 Fe   2 i 0.89589  0.85735 0.20127 1.00000
N1  N    2 i 0.60542  0.16009 0.28967 1.00000
 
