# CIF file
# This file was generated by FINDSYM
# Harold T. Stokes, Branton J. Campbell, Dorian M. Hatch
# Brigham Young University, Provo, Utah, USA
 
data_findsym-output
_audit_creation_method FINDSYM
 
_symmetry_space_group_name_H-M "P 1"
_symmetry_Int_Tables_number 1
 
_cell_length_a    4.70873
_cell_length_b    4.95071
_cell_length_c    6.61036
_cell_angle_alpha 69.26433
_cell_angle_beta  74.92413
_cell_angle_gamma 64.05329
 
loop_
_space_group_symop_id
_space_group_symop_operation_xyz
1 x,y,z
 
loop_
_atom_site_label
_atom_site_type_symbol
_atom_site_symmetry_multiplicity
_atom_site_Wyckoff_label
_atom_site_fract_x
_atom_site_fract_y
_atom_site_fract_z
_atom_site_occupancy
Fe1  Fe   1 a 0.27274 0.56788 0.19774  1.00000
Fe2  Fe   1 a 0.12326 0.10989 0.34651  1.00000
Fe3  Fe   1 a 0.73634 0.06595 0.12819  1.00000
Fe4  Fe   1 a 0.62753 0.64070 0.39645  1.00000
Fe5  Fe   1 a 0.32337 0.09970 -0.06313 1.00000
Fe6  Fe   1 a 0.52269 0.11646 0.54283  1.00000
Fe7  Fe   1 a 0.83921 0.59531 -0.02082 1.00000
Fe8  Fe   1 a 0.42020 0.61137 0.77149  1.00000
Fe9  Fe   1 a 0.03191 0.61258 0.57376  1.00000
Fe10 Fe   1 a 0.89903 0.14691 0.72009  1.00000
N1   N    1 a 0.07733 0.83987 -0.04291 1.00000
N2   N    1 a 0.69212 0.34923 0.26286  1.00000
 
