# CIF file
# This file was generated by FINDSYM
# Harold T. Stokes, Branton J. Campbell, Dorian M. Hatch
# Brigham Young University, Provo, Utah, USA
 
data_findsym-output
_audit_creation_method FINDSYM
 
_symmetry_space_group_name_H-M "P -1"
_symmetry_Int_Tables_number 2
 
_cell_length_a    4.75696
_cell_length_b    5.24626
_cell_length_c    5.64118
_cell_angle_alpha 74.76622
_cell_angle_beta  73.07594
_cell_angle_gamma 80.65786
 
loop_
_space_group_symop_id
_space_group_symop_operation_xyz
1 x,y,z
2 -x,-y,-z
 
loop_
_atom_site_label
_atom_site_type_symbol
_atom_site_symmetry_multiplicity
_atom_site_Wyckoff_label
_atom_site_fract_x
_atom_site_fract_y
_atom_site_fract_z
_atom_site_occupancy
Fe1 Fe   2 i 0.08544 0.79811 -0.09947 1.00000
Fe2 Fe   2 i 0.07516 0.76980 0.42346  1.00000
Fe3 Fe   1 f 0.50000 0.00000 0.50000  1.00000
Fe4 Fe   2 i 0.30301 0.40070 0.69949  1.00000
Fe5 Fe   2 i 0.68796 0.55483 0.81466  1.00000
Fe6 Fe   1 d 0.50000 0.00000 0.00000  1.00000
N1  N    2 i 0.22254 0.10187 0.28922  1.00000
 
