# CIF file
# This file was generated by FINDSYM
# Harold T. Stokes, Branton J. Campbell, Dorian M. Hatch
# Brigham Young University, Provo, Utah, USA
 
data_findsym-output
_audit_creation_method FINDSYM
 
_symmetry_space_group_name_H-M "P -1"
_symmetry_Int_Tables_number 2
 
_cell_length_a    4.74425
_cell_length_b    5.13076
_cell_length_c    6.23647
_cell_angle_alpha 80.40383
_cell_angle_beta  71.64705
_cell_angle_gamma 63.50660
 
loop_
_space_group_symop_id
_space_group_symop_operation_xyz
1 x,y,z
2 -x,-y,-z
 
loop_
_atom_site_label
_atom_site_type_symbol
_atom_site_symmetry_multiplicity
_atom_site_Wyckoff_label
_atom_site_fract_x
_atom_site_fract_y
_atom_site_fract_z
_atom_site_occupancy
Fe1 Fe   1 g 0.00000 0.50000  0.50000 1.00000
Fe2 Fe   2 i 0.18745 0.29823  0.10764 1.00000
Fe3 Fe   2 i 0.23780 0.76601  0.07369 1.00000
Fe4 Fe   1 b 0.00000 0.00000  0.50000 1.00000
Fe5 Fe   2 i 0.60849 -0.09502 0.29996 1.00000
Fe6 Fe   2 i 0.55549 0.44900  0.31262 1.00000
N1  N    2 i 0.89459 0.10262  0.21588 1.00000
 
