# CIF file
# This file was generated by FINDSYM
# Harold T. Stokes, Branton J. Campbell, Dorian M. Hatch
# Brigham Young University, Provo, Utah, USA
 
data_findsym-output
_audit_creation_method FINDSYM
 
_symmetry_space_group_name_H-M "P -1"
_symmetry_Int_Tables_number 2
 
_cell_length_a    4.09663
_cell_length_b    5.13133
_cell_length_c    6.79621
_cell_angle_alpha 105.92215
_cell_angle_beta  107.22565
_cell_angle_gamma 93.13274
 
loop_
_space_group_symop_id
_space_group_symop_operation_xyz
1 x,y,z
2 -x,-y,-z
 
loop_
_atom_site_label
_atom_site_type_symbol
_atom_site_symmetry_multiplicity
_atom_site_Wyckoff_label
_atom_site_fract_x
_atom_site_fract_y
_atom_site_fract_z
_atom_site_occupancy
Fe1 Fe   2 i 0.85985  0.62781 0.26689  1.00000
Fe2 Fe   1 f 0.50000  0.00000 0.50000  1.00000
Fe3 Fe   1 h 0.50000  0.50000 0.50000  1.00000
Fe4 Fe   2 i 0.69064  0.79044 -0.09414 1.00000
Fe5 Fe   2 i 0.73459  0.24156 0.88404  1.00000
Fe6 Fe   2 i -0.09444 0.12743 0.30744  1.00000
N1  N    1 g 0.00000  0.50000 0.50000  1.00000
N2  N    1 e 0.50000  0.50000 0.00000  1.00000
 
