# CIF file
# This file was generated by FINDSYM
# Harold T. Stokes, Branton J. Campbell, Dorian M. Hatch
# Brigham Young University, Provo, Utah, USA
 
data_findsym-output
_audit_creation_method FINDSYM
 
_symmetry_space_group_name_H-M "P 1"
_symmetry_Int_Tables_number 1
 
_cell_length_a    2.57465
_cell_length_b    4.71111
_cell_length_c    10.69181
_cell_angle_alpha 83.24561
_cell_angle_beta  85.59882
_cell_angle_gamma 83.42412
 
loop_
_space_group_symop_id
_space_group_symop_operation_xyz
1 x,y,z
 
loop_
_atom_site_label
_atom_site_type_symbol
_atom_site_symmetry_multiplicity
_atom_site_Wyckoff_label
_atom_site_fract_x
_atom_site_fract_y
_atom_site_fract_z
_atom_site_occupancy
Fe1  Fe   1 a 0.76612  0.60581 0.88252  1.00000
Fe2  Fe   1 a 0.05410  0.05949 0.29049  1.00000
Fe3  Fe   1 a 0.60514  0.40135 0.68650  1.00000
Fe4  Fe   1 a 0.44845  0.18499 0.50070  1.00000
Fe5  Fe   1 a 0.34553  0.09279 0.87242  1.00000
Fe6  Fe   1 a 0.87615  0.69990 0.49056  1.00000
Fe7  Fe   1 a 0.24449  0.37792 0.09344  1.00000
Fe8  Fe   1 a 0.10393  0.89378 0.68620  1.00000
Fe9  Fe   1 a 0.83138  0.87048 0.08856  1.00000
Fe10 Fe   1 a 0.47407  0.57780 0.27527  1.00000
N1   N    1 a -0.04096 0.38352 0.38941  1.00000
N2   N    1 a 0.79716  0.23498 -0.01717 1.00000
 
