# CIF file
# This file was generated by FINDSYM
# Harold T. Stokes, Branton J. Campbell, Dorian M. Hatch
# Brigham Young University, Provo, Utah, USA
 
data_findsym-output
_audit_creation_method FINDSYM
 
_symmetry_space_group_name_H-M "P -1"
_symmetry_Int_Tables_number 2
 
_cell_length_a    4.33155
_cell_length_b    5.13910
_cell_length_c    6.24828
_cell_angle_alpha 76.27358
_cell_angle_beta  72.80226
_cell_angle_gamma 82.92790
 
loop_
_space_group_symop_id
_space_group_symop_operation_xyz
1 x,y,z
2 -x,-y,-z
 
loop_
_atom_site_label
_atom_site_type_symbol
_atom_site_symmetry_multiplicity
_atom_site_Wyckoff_label
_atom_site_fract_x
_atom_site_fract_y
_atom_site_fract_z
_atom_site_occupancy
Fe1 Fe   2 i 0.75503 0.67997 -0.09009 1.00000
Fe2 Fe   2 i 0.82262 0.20446 0.89794  1.00000
Fe3 Fe   2 i 0.60811 0.39091 0.30163  1.00000
Fe4 Fe   2 i 0.43441 0.13522 0.69429  1.00000
Fe5 Fe   1 b 0.00000 0.00000 0.50000  1.00000
Fe6 Fe   1 g 0.00000 0.50000 0.50000  1.00000
N1  N    2 i 0.89803 0.09871 0.21052  1.00000
 
