# CIF file
# This file was generated by FINDSYM
# Harold T. Stokes, Branton J. Campbell, Dorian M. Hatch
# Brigham Young University, Provo, Utah, USA
 
data_findsym-output
_audit_creation_method FINDSYM
 
_symmetry_space_group_name_H-M "P 1 21 1"
_symmetry_Int_Tables_number 4
 
_cell_length_a    4.65994
_cell_length_b    4.27593
_cell_length_c    6.65420
_cell_angle_alpha 90.00000
_cell_angle_beta  104.99665
_cell_angle_gamma 90.00000
 
loop_
_space_group_symop_id
_space_group_symop_operation_xyz
1 x,y,z
2 -x,y+1/2,-z
 
loop_
_atom_site_label
_atom_site_type_symbol
_atom_site_symmetry_multiplicity
_atom_site_Wyckoff_label
_atom_site_fract_x
_atom_site_fract_y
_atom_site_fract_z
_atom_site_occupancy
Fe1 Fe   2 a 0.64235 0.00872  0.06468 1.00000
Fe2 Fe   2 a 0.04129 -0.00402 0.88755 1.00000
Fe3 Fe   2 a 0.75617 0.53458  0.73703 1.00000
Fe4 Fe   2 a 0.83367 0.07181  0.48951 1.00000
Fe5 Fe   2 a 0.43946 0.03829  0.66830 1.00000
N1  N    2 a 0.10303 0.29114  0.70194 1.00000
 
