# CIF file
# This file was generated by FINDSYM
# Harold T. Stokes, Branton J. Campbell, Dorian M. Hatch
# Brigham Young University, Provo, Utah, USA
 
data_findsym-output
_audit_creation_method FINDSYM
 
_symmetry_space_group_name_H-M "C 1 2 1"
_symmetry_Int_Tables_number 5
 
_cell_length_a    11.98477
_cell_length_b    4.31609
_cell_length_c    5.08608
_cell_angle_alpha 90.00000
_cell_angle_beta  102.80821
_cell_angle_gamma 90.00000
 
loop_
_space_group_symop_id
_space_group_symop_operation_xyz
1 x,y,z
2 -x,y,-z
3 x+1/2,y+1/2,z
4 -x+1/2,y+1/2,-z
 
loop_
_atom_site_label
_atom_site_type_symbol
_atom_site_symmetry_multiplicity
_atom_site_Wyckoff_label
_atom_site_fract_x
_atom_site_fract_y
_atom_site_fract_z
_atom_site_occupancy
Fe1 Fe   4 c 0.69903  0.45059  0.89832 1.00000
Fe2 Fe   2 a 0.00000  0.01038  0.00000 1.00000
Fe3 Fe   4 c -0.09228 0.42500  0.26753 1.00000
Fe4 Fe   4 c 0.40013  0.01729  0.79230 1.00000
Fe5 Fe   4 c 0.79182  0.04534  0.62329 1.00000
Fe6 Fe   2 b 0.00000  -0.05048 0.50000 1.00000
N1  N    4 c 0.64636  0.23967  0.55191 1.00000
 
