# CIF file
# This file was generated by FINDSYM
# Harold T. Stokes, Branton J. Campbell, Dorian M. Hatch
# Brigham Young University, Provo, Utah, USA
 
data_findsym-output
_audit_creation_method FINDSYM
 
_symmetry_space_group_name_H-M "C 1 2 1"
_symmetry_Int_Tables_number 5
 
_cell_length_a    12.07687
_cell_length_b    4.30494
_cell_length_c    5.09531
_cell_angle_alpha 90.00000
_cell_angle_beta  101.99162
_cell_angle_gamma 90.00000
 
loop_
_space_group_symop_id
_space_group_symop_operation_xyz
1 x,y,z
2 -x,y,-z
3 x+1/2,y+1/2,z
4 -x+1/2,y+1/2,-z
 
loop_
_atom_site_label
_atom_site_type_symbol
_atom_site_symmetry_multiplicity
_atom_site_Wyckoff_label
_atom_site_fract_x
_atom_site_fract_y
_atom_site_fract_z
_atom_site_occupancy
Fe1 Fe   4 c -0.00315 0.42876 0.24406 1.00000
Fe2 Fe   4 c 0.40662  0.47483 0.39471 1.00000
Fe3 Fe   4 c 0.39980  0.41132 0.86521 1.00000
Fe4 Fe   4 c 0.21096  0.37519 0.08905 1.00000
Fe5 Fe   4 c 0.19818  0.45247 0.55123 1.00000
N1  N    4 c 0.64575  0.16723 0.84478 1.00000
 
