# CIF file
# This file was generated by FINDSYM
# Harold T. Stokes, Branton J. Campbell, Dorian M. Hatch
# Brigham Young University, Provo, Utah, USA
 
data_findsym-output
_audit_creation_method FINDSYM
 
_symmetry_space_group_name_H-M "F 2/m 2/m 2/m"
_symmetry_Int_Tables_number 69
 
_cell_length_a    8.75788
_cell_length_b    4.73830
_cell_length_c    8.44815
_cell_angle_alpha 90.00000
_cell_angle_beta  90.00000
_cell_angle_gamma 90.00000
 
loop_
_space_group_symop_id
_space_group_symop_operation_xyz
1 x,y,z
2 x,-y,-z
3 -x,y,-z
4 -x,-y,z
5 -x,-y,-z
6 -x,y,z
7 x,-y,z
8 x,y,-z
9 x,y+1/2,z+1/2
10 x,-y+1/2,-z+1/2
11 -x,y+1/2,-z+1/2
12 -x,-y+1/2,z+1/2
13 -x,-y+1/2,-z+1/2
14 -x,y+1/2,z+1/2
15 x,-y+1/2,z+1/2
16 x,y+1/2,-z+1/2
17 x+1/2,y,z+1/2
18 x+1/2,-y,-z+1/2
19 -x+1/2,y,-z+1/2
20 -x+1/2,-y,z+1/2
21 -x+1/2,-y,-z+1/2
22 -x+1/2,y,z+1/2
23 x+1/2,-y,z+1/2
24 x+1/2,y,-z+1/2
25 x+1/2,y+1/2,z
26 x+1/2,-y+1/2,-z
27 -x+1/2,y+1/2,-z
28 -x+1/2,-y+1/2,z
29 -x+1/2,-y+1/2,-z
30 -x+1/2,y+1/2,z
31 x+1/2,-y+1/2,z
32 x+1/2,y+1/2,-z
 
loop_
_atom_site_label
_atom_site_type_symbol
_atom_site_symmetry_multiplicity
_atom_site_Wyckoff_label
_atom_site_fract_x
_atom_site_fract_y
_atom_site_fract_z
_atom_site_occupancy
Fe1 Fe   8 f 0.25000 0.25000 0.25000 1.00000
Fe2 Fe   8 i 0.00000 0.00000 0.17904 1.00000
Fe3 Fe   8 g 0.80099 0.00000 0.00000 1.00000
Sc1 Sc   4 b 0.00000 0.00000 0.50000 1.00000
 
