# CIF file
# This file was generated by FINDSYM
# Harold T. Stokes, Branton J. Campbell, Dorian M. Hatch
# Brigham Young University, Provo, Utah, USA
 
data_findsym-output
_audit_creation_method FINDSYM
 
_symmetry_space_group_name_H-M "P 1"
_symmetry_Int_Tables_number 1
 
_cell_length_a    4.62270
_cell_length_b    4.73136
_cell_length_c    4.73501
_cell_angle_alpha 119.67120
_cell_angle_beta  92.45818
_cell_angle_gamma 91.69019
 
loop_
_space_group_symop_id
_space_group_symop_operation_xyz
1 x,y,z
 
loop_
_atom_site_label
_atom_site_type_symbol
_atom_site_symmetry_multiplicity
_atom_site_Wyckoff_label
_atom_site_fract_x
_atom_site_fract_y
_atom_site_fract_z
_atom_site_occupancy
Fe1 Fe   1 a 0.23374 0.39286  0.75810 1.00000
Fe2 Fe   1 a 0.03208 0.86013  0.71703 1.00000
Fe3 Fe   1 a 0.23322 0.89560  0.25366 1.00000
Fe4 Fe   1 a 0.23143 0.38872  0.25102 1.00000
Fe5 Fe   1 a 0.73840 0.58263  0.11464 1.00000
Fe6 Fe   1 a 0.73816 0.24915  0.44761 1.00000
Sc1 Sc   1 a 0.54677 -0.08587 0.77931 1.00000
 
