# CIF file
# This file was generated by FINDSYM
# Harold T. Stokes, Branton J. Campbell, Dorian M. Hatch
# Brigham Young University, Provo, Utah, USA
 
data_findsym-output
_audit_creation_method FINDSYM
 
_symmetry_space_group_name_H-M "P 63/m 2/c 2/m"
_symmetry_Int_Tables_number 193
 
_cell_length_a    6.95391
_cell_length_b    6.95391
_cell_length_c    4.81647
_cell_angle_alpha 90.00000
_cell_angle_beta  90.00000
_cell_angle_gamma 120.00000
 
loop_
_space_group_symop_id
_space_group_symop_operation_xyz
1 x,y,z
2 x-y,x,z+1/2
3 -y,x-y,z
4 -x,-y,z+1/2
5 -x+y,-x,z
6 y,-x+y,z+1/2
7 x-y,-y,-z+1/2
8 x,x-y,-z
9 y,x,-z+1/2
10 -x+y,y,-z
11 -x,-x+y,-z+1/2
12 -y,-x,-z
13 -x,-y,-z
14 -x+y,-x,-z+1/2
15 y,-x+y,-z
16 x,y,-z+1/2
17 x-y,x,-z
18 -y,x-y,-z+1/2
19 -x+y,y,z+1/2
20 -x,-x+y,z
21 -y,-x,z+1/2
22 x-y,-y,z
23 x,x-y,z+1/2
24 y,x,z
 
loop_
_atom_site_label
_atom_site_type_symbol
_atom_site_symmetry_multiplicity
_atom_site_Wyckoff_label
_atom_site_fract_x
_atom_site_fract_y
_atom_site_fract_z
_atom_site_occupancy
Fe1 Fe   6 g 0.22727 0.00000 0.25000 1.00000
Fe2 Fe   4 d 0.33333 0.66667 0.00000 1.00000
Ge1 Ge   6 g 0.60565 0.00000 0.25000 1.00000
 
