# CIF file
# This file was generated by FINDSYM
# Harold T. Stokes, Branton J. Campbell, Dorian M. Hatch
# Brigham Young University, Provo, Utah, USA
 
data_findsym-output
_audit_creation_method FINDSYM
 
_symmetry_space_group_name_H-M "P -1"
_symmetry_Int_Tables_number 2
 
_cell_length_a    4.94436
_cell_length_b    6.41990
_cell_length_c    6.85205
_cell_angle_alpha 101.99946
_cell_angle_beta  91.61180
_cell_angle_gamma 97.32161
 
loop_
_space_group_symop_id
_space_group_symop_operation_xyz
1 x,y,z
2 -x,-y,-z
 
loop_
_atom_site_label
_atom_site_type_symbol
_atom_site_symmetry_multiplicity
_atom_site_Wyckoff_label
_atom_site_fract_x
_atom_site_fract_y
_atom_site_fract_z
_atom_site_occupancy
Fe1 Fe   2 i 0.48404  0.34183  0.70257  1.00000
Fe2 Fe   2 i 0.31126  0.71362  0.65015  1.00000
Fe3 Fe   2 i -0.02163 0.34197  0.70797  1.00000
Fe4 Fe   2 i 0.25664  0.00924  0.48734  1.00000
Fe5 Fe   2 i 0.62727  0.02895  0.85293  1.00000
Ge1 Ge   2 i 0.20660  0.35118  0.38074  1.00000
Ge2 Ge   2 i 0.27004  0.59323  -0.03116 1.00000
Ge3 Ge   2 i 0.85899  -0.05669 0.15868  1.00000
 
