# CIF file
# This file was generated by FINDSYM
# Harold T. Stokes, Branton J. Campbell, Dorian M. Hatch
# Brigham Young University, Provo, Utah, USA
 
data_findsym-output
_audit_creation_method FINDSYM
 
_symmetry_space_group_name_H-M "P 1 21/m 1"
_symmetry_Int_Tables_number 11
 
_cell_length_a    6.34976
_cell_length_b    5.06762
_cell_length_c    6.58452
_cell_angle_alpha 90.00000
_cell_angle_beta  97.42191
_cell_angle_gamma 90.00000
 
loop_
_space_group_symop_id
_space_group_symop_operation_xyz
1 x,y,z
2 -x,y+1/2,-z
3 -x,-y,-z
4 x,-y+1/2,z
 
loop_
_atom_site_label
_atom_site_type_symbol
_atom_site_symmetry_multiplicity
_atom_site_Wyckoff_label
_atom_site_fract_x
_atom_site_fract_y
_atom_site_fract_z
_atom_site_occupancy
Fe1 Fe   2 e 0.06038  0.25000 0.83213 1.00000
Fe2 Fe   4 f 0.63032  0.50268 0.29398 1.00000
Fe3 Fe   2 c 0.00000  0.00000 0.50000 1.00000
Fe4 Fe   2 e 0.30200  0.25000 0.38190 1.00000
Ge1 Ge   2 e -0.07367 0.25000 0.16102 1.00000
Ge2 Ge   2 e 0.69281  0.25000 0.63631 1.00000
Ge3 Ge   2 e 0.40447  0.25000 0.03102 1.00000
 
