# CIF file
# This file was generated by FINDSYM
# Harold T. Stokes, Branton J. Campbell, Dorian M. Hatch
# Brigham Young University, Provo, Utah, USA
 
data_findsym-output
_audit_creation_method FINDSYM
 
_symmetry_space_group_name_H-M "P 3 1 m"
_symmetry_Int_Tables_number 157
 
_cell_length_a    6.98184
_cell_length_b    6.98184
_cell_length_c    4.94076
_cell_angle_alpha 90.00000
_cell_angle_beta  90.00000
_cell_angle_gamma 120.00000
 
loop_
_space_group_symop_id
_space_group_symop_operation_xyz
1 x,y,z
2 -y,x-y,z
3 -x+y,-x,z
4 -x,-x+y,z
5 x-y,-y,z
6 y,x,z
 
loop_
_atom_site_label
_atom_site_type_symbol
_atom_site_symmetry_multiplicity
_atom_site_Wyckoff_label
_atom_site_fract_x
_atom_site_fract_y
_atom_site_fract_z
_atom_site_occupancy
Fe1 Fe   3 c 0.33119 0.00000 0.34309 1.00000
Fe2 Fe   3 c 0.33149 0.00000 0.83816 1.00000
Fe3 Fe   1 a 0.00000 0.00000 0.53211 1.00000
Fe4 Fe   3 c 0.66503 0.00000 0.10039 1.00000
Ge1 Ge   3 c 0.64711 0.00000 0.59814 1.00000
Ge2 Ge   1 a 0.00000 0.00000 0.03662 1.00000
Ge3 Ge   2 b 0.33333 0.66667 0.08908 1.00000
 
