# CIF file
# This file was generated by FINDSYM
# Harold T. Stokes, Branton J. Campbell, Dorian M. Hatch
# Brigham Young University, Provo, Utah, USA
 
data_findsym-output
_audit_creation_method FINDSYM
 
_symmetry_space_group_name_H-M "P -1"
_symmetry_Int_Tables_number 2
 
_cell_length_a    4.96326
_cell_length_b    6.30176
_cell_length_c    6.88643
_cell_angle_alpha 99.72333
_cell_angle_beta  90.24248
_cell_angle_gamma 105.40905
 
loop_
_space_group_symop_id
_space_group_symop_operation_xyz
1 x,y,z
2 -x,-y,-z
 
loop_
_atom_site_label
_atom_site_type_symbol
_atom_site_symmetry_multiplicity
_atom_site_Wyckoff_label
_atom_site_fract_x
_atom_site_fract_y
_atom_site_fract_z
_atom_site_occupancy
Fe1 Fe   2 i 0.15020 0.15893 0.61143 1.00000
Fe2 Fe   2 i 0.40063 0.84139 0.71661 1.00000
Fe3 Fe   2 i 0.11543 0.83090 0.05774 1.00000
Fe4 Fe   2 i 0.61101 0.82674 0.04752 1.00000
Fe5 Fe   1 g 0.00000 0.50000 0.50000 1.00000
Fe6 Fe   1 h 0.50000 0.50000 0.50000 1.00000
Ge1 Ge   2 i 0.24348 0.50137 0.86590 1.00000
Ge2 Ge   2 i 0.33526 0.78270 0.35210 1.00000
Ge3 Ge   2 i 0.11478 0.20002 0.26122 1.00000
 
