# CIF file
# This file was generated by FINDSYM
# Harold T. Stokes, Branton J. Campbell, Dorian M. Hatch
# Brigham Young University, Provo, Utah, USA
 
data_findsym-output
_audit_creation_method FINDSYM
 
_symmetry_space_group_name_H-M "C 1 m 1"
_symmetry_Int_Tables_number 8
 
_cell_length_a    11.81801
_cell_length_b    4.00785
_cell_length_c    9.50042
_cell_angle_alpha 90.00000
_cell_angle_beta  114.30681
_cell_angle_gamma 90.00000
 
loop_
_space_group_symop_id
_space_group_symop_operation_xyz
1 x,y,z
2 x,-y,z
3 x+1/2,y+1/2,z
4 x+1/2,-y+1/2,z
 
loop_
_atom_site_label
_atom_site_type_symbol
_atom_site_symmetry_multiplicity
_atom_site_Wyckoff_label
_atom_site_fract_x
_atom_site_fract_y
_atom_site_fract_z
_atom_site_occupancy
Fe1  Fe   2 a 0.35195  0.00000 0.43175  1.00000
Fe2  Fe   2 a 0.80206  0.00000 0.79430  1.00000
Fe3  Fe   2 a 0.48618  0.00000 0.28042  1.00000
Fe4  Fe   2 a 0.70384  0.00000 0.45343  1.00000
Fe5  Fe   2 a 0.05823  0.00000 0.46117  1.00000
Fe6  Fe   2 a 0.26456  0.00000 0.11444  1.00000
Fe7  Fe   2 a 0.03691  0.00000 -0.05173 1.00000
Fe8  Fe   2 a -0.06978 0.00000 0.62661  1.00000
Fe9  Fe   2 a 0.89943  0.00000 0.09506  1.00000
Fe10 Fe   2 a 0.16154  0.00000 0.78729  1.00000
Ge1  Ge   2 a 0.41125  0.00000 -0.03724 1.00000
Ge2  Ge   2 a 0.29035  0.00000 0.63809  1.00000
Ge3  Ge   2 a 0.56981  0.00000 0.61669  1.00000
Ge4  Ge   2 a 0.12271  0.00000 0.24661  1.00000
Ge5  Ge   2 a 0.66274  0.00000 -0.05083 1.00000
Ge6  Ge   2 a 0.83214  0.00000 0.29508  1.00000
 
