# CIF file
# This file was generated by FINDSYM
# Harold T. Stokes, Branton J. Campbell, Dorian M. Hatch
# Brigham Young University, Provo, Utah, USA
 
data_findsym-output
_audit_creation_method FINDSYM
 
_symmetry_space_group_name_H-M "C 1 2/m 1"
_symmetry_Int_Tables_number 12
 
_cell_length_a    12.15988
_cell_length_b    3.98766
_cell_length_c    8.49716
_cell_angle_alpha 90.00000
_cell_angle_beta  90.11702
_cell_angle_gamma 90.00000
 
loop_
_space_group_symop_id
_space_group_symop_operation_xyz
1 x,y,z
2 -x,y,-z
3 -x,-y,-z
4 x,-y,z
5 x+1/2,y+1/2,z
6 -x+1/2,y+1/2,-z
7 -x+1/2,-y+1/2,-z
8 x+1/2,-y+1/2,z
 
loop_
_atom_site_label
_atom_site_type_symbol
_atom_site_symmetry_multiplicity
_atom_site_Wyckoff_label
_atom_site_fract_x
_atom_site_fract_y
_atom_site_fract_z
_atom_site_occupancy
Fe1 Fe   4 i 0.83076 0.00000 0.67153  1.00000
Fe2 Fe   4 i 0.33326 0.00000 0.16819  1.00000
Fe3 Fe   2 c 0.00000 0.00000 0.50000  1.00000
Fe4 Fe   4 i 0.80217 0.00000 0.37317  1.00000
Fe5 Fe   4 i 0.87762 0.00000 -0.02699 1.00000
Fe6 Fe   2 b 0.00000 0.50000 0.00000  1.00000
Ge1 Ge   4 i 0.02486 0.00000 0.78172  1.00000
Ge2 Ge   4 i 0.38066 0.00000 0.49142  1.00000
Ge3 Ge   4 i 0.69911 0.00000 0.13341  1.00000
 
