# CIF file
# This file was generated by FINDSYM
# Harold T. Stokes, Branton J. Campbell, Dorian M. Hatch
# Brigham Young University, Provo, Utah, USA
 
data_findsym-output
_audit_creation_method FINDSYM
 
_symmetry_space_group_name_H-M "C 1 m 1"
_symmetry_Int_Tables_number 8
 
_cell_length_a    12.83438
_cell_length_b    3.90598
_cell_length_c    8.36026
_cell_angle_alpha 90.00000
_cell_angle_beta  94.41278
_cell_angle_gamma 90.00000
 
loop_
_space_group_symop_id
_space_group_symop_operation_xyz
1 x,y,z
2 x,-y,z
3 x+1/2,y+1/2,z
4 x+1/2,-y+1/2,z
 
loop_
_atom_site_label
_atom_site_type_symbol
_atom_site_symmetry_multiplicity
_atom_site_Wyckoff_label
_atom_site_fract_x
_atom_site_fract_y
_atom_site_fract_z
_atom_site_occupancy
Fe1  Fe   2 a 0.13159  0.00000 -0.07382 1.00000
Fe2  Fe   2 a 0.31590  0.00000 0.80011  1.00000
Fe3  Fe   2 a 0.52736  0.00000 0.33796  1.00000
Fe4  Fe   2 a 0.67088  0.00000 0.10516  1.00000
Fe5  Fe   2 a 0.47417  0.00000 0.01962  1.00000
Fe6  Fe   2 a 0.86380  0.00000 0.25619  1.00000
Fe7  Fe   2 a 0.49343  0.00000 0.68436  1.00000
Fe8  Fe   2 a 0.17066  0.00000 0.59095  1.00000
Fe9  Fe   2 a 0.34650  0.00000 0.44919  1.00000
Fe10 Fe   2 a 0.82827  0.00000 0.62575  1.00000
Ge1  Ge   2 a 0.29919  0.00000 0.10681  1.00000
Ge2  Ge   2 a 0.67955  0.00000 0.78652  1.00000
Ge3  Ge   2 a -0.06011 0.00000 0.86217  1.00000
Ge4  Ge   2 a 0.70680  0.00000 0.40079  1.00000
Ge5  Ge   2 a 0.04966  0.00000 0.17625  1.00000
Ge6  Ge   2 a -0.01216 0.00000 0.49860  1.00000
 
