# CIF file
# This file was generated by FINDSYM
# Harold T. Stokes, Branton J. Campbell, Dorian M. Hatch
# Brigham Young University, Provo, Utah, USA
 
data_findsym-output
_audit_creation_method FINDSYM
 
_symmetry_space_group_name_H-M "A m m 2"
_symmetry_Int_Tables_number 38
 
_cell_length_a    4.97360
_cell_length_b    11.79832
_cell_length_c    6.97179
_cell_angle_alpha 90.00000
_cell_angle_beta  90.00000
_cell_angle_gamma 90.00000
 
loop_
_space_group_symop_id
_space_group_symop_operation_xyz
1 x,y,z
2 -x,-y,z
3 x,-y,z
4 -x,y,z
5 x,y+1/2,z+1/2
6 -x,-y+1/2,z+1/2
7 x,-y+1/2,z+1/2
8 -x,y+1/2,z+1/2
 
loop_
_atom_site_label
_atom_site_type_symbol
_atom_site_symmetry_multiplicity
_atom_site_Wyckoff_label
_atom_site_fract_x
_atom_site_fract_y
_atom_site_fract_z
_atom_site_occupancy
Fe1 Fe   8 f 0.24962 0.32159 0.12946  1.00000
Fe2 Fe   4 c 0.75014 0.00000 0.12628  1.00000
Fe3 Fe   4 e 0.50000 0.65401 0.80116  1.00000
Fe4 Fe   4 d 0.00000 0.15636 -0.04244 1.00000
Ge1 Ge   2 b 0.50000 0.00000 0.53007  1.00000
Ge2 Ge   4 e 0.50000 0.84644 -0.05685 1.00000
Ge3 Ge   4 d 0.00000 0.65177 0.81485  1.00000
Ge4 Ge   2 a 0.00000 0.00000 0.73219  1.00000
 
