# CIF file
# This file was generated by FINDSYM
# Harold T. Stokes, Branton J. Campbell, Dorian M. Hatch
# Brigham Young University, Provo, Utah, USA
 
data_findsym-output
_audit_creation_method FINDSYM
 
_symmetry_space_group_name_H-M "C 1 m 1"
_symmetry_Int_Tables_number 8
 
_cell_length_a    12.08858
_cell_length_b    4.04139
_cell_length_c    8.54775
_cell_angle_alpha 90.00000
_cell_angle_beta  90.20911
_cell_angle_gamma 90.00000
 
loop_
_space_group_symop_id
_space_group_symop_operation_xyz
1 x,y,z
2 x,-y,z
3 x+1/2,y+1/2,z
4 x+1/2,-y+1/2,z
 
loop_
_atom_site_label
_atom_site_type_symbol
_atom_site_symmetry_multiplicity
_atom_site_Wyckoff_label
_atom_site_fract_x
_atom_site_fract_y
_atom_site_fract_z
_atom_site_occupancy
Fe1  Fe   2 a 0.17573  0.00000 0.22495  1.00000
Fe2  Fe   2 a 0.37886  0.00000 0.34816  1.00000
Fe3  Fe   2 a 0.54487  0.00000 0.18924  1.00000
Fe4  Fe   2 a 0.84910  0.00000 0.55673  1.00000
Fe5  Fe   2 a 0.21532  0.00000 0.52360  1.00000
Fe6  Fe   2 a 0.88135  0.00000 0.85922  1.00000
Fe7  Fe   2 a 0.71479  0.00000 0.02425  1.00000
Fe8  Fe   2 a -0.08195 0.00000 0.16053  1.00000
Fe9  Fe   2 a 0.52460  0.00000 0.87757  1.00000
Fe10 Fe   2 a 0.04860  0.00000 0.69245  1.00000
Ge1  Ge   2 a 0.08431  0.00000 -0.01434 1.00000
Ge2  Ge   2 a 0.02268  0.00000 0.40527  1.00000
Ge3  Ge   2 a 0.40858  0.00000 0.66067  1.00000
Ge4  Ge   2 a 0.74318  0.00000 0.32602  1.00000
Ge5  Ge   2 a 0.34111  0.00000 0.03251  1.00000
Ge6  Ge   2 a 0.68697  0.00000 0.71627  1.00000
 
