# CIF file
# This file was generated by FINDSYM
# Harold T. Stokes, Branton J. Campbell, Dorian M. Hatch
# Brigham Young University, Provo, Utah, USA
 
data_findsym-output
_audit_creation_method FINDSYM
 
_symmetry_space_group_name_H-M "C 1 2/m 1"
_symmetry_Int_Tables_number 12
 
_cell_length_a    12.09318
_cell_length_b    5.08498
_cell_length_c    5.98275
_cell_angle_alpha 90.00000
_cell_angle_beta  93.68853
_cell_angle_gamma 90.00000
 
loop_
_space_group_symop_id
_space_group_symop_operation_xyz
1 x,y,z
2 -x,y,-z
3 -x,-y,-z
4 x,-y,z
5 x+1/2,y+1/2,z
6 -x+1/2,y+1/2,-z
7 -x+1/2,-y+1/2,-z
8 x+1/2,-y+1/2,z
 
loop_
_atom_site_label
_atom_site_type_symbol
_atom_site_symmetry_multiplicity
_atom_site_Wyckoff_label
_atom_site_fract_x
_atom_site_fract_y
_atom_site_fract_z
_atom_site_occupancy
Co1 Co   8 j 0.09855 0.25051 0.04185 1.00000
Co2 Co   4 i 0.48355 0.00000 0.29556 1.00000
Co3 Co   8 j 0.36084 0.25069 0.54406 1.00000
Co4 Co   4 i 0.02451 0.00000 0.71132 1.00000
Co5 Co   4 i 0.22991 0.00000 0.77338 1.00000
Ta1 Ta   4 i 0.73149 0.00000 0.80026 1.00000
 
