# CIF file
# This file was generated by FINDSYM
# Harold T. Stokes, Branton J. Campbell, Dorian M. Hatch
# Brigham Young University, Provo, Utah, USA
 
data_findsym-output
_audit_creation_method FINDSYM
 
_symmetry_space_group_name_H-M "P 1 21/m 1"
_symmetry_Int_Tables_number 11
 
_cell_length_a    6.70836
_cell_length_b    4.07836
_cell_length_c    6.78244
_cell_angle_alpha 90.00000
_cell_angle_beta  97.79130
_cell_angle_gamma 90.00000
 
loop_
_space_group_symop_id
_space_group_symop_operation_xyz
1 x,y,z
2 -x,y+1/2,-z
3 -x,-y,-z
4 x,-y+1/2,z
 
loop_
_atom_site_label
_atom_site_type_symbol
_atom_site_symmetry_multiplicity
_atom_site_Wyckoff_label
_atom_site_fract_x
_atom_site_fract_y
_atom_site_fract_z
_atom_site_occupancy
Co1 Co   2 e 0.03813  0.25000 0.29416  1.00000
Co2 Co   2 e 0.41661  0.25000 0.42377  1.00000
Co3 Co   2 e 0.79305  0.25000 0.54861  1.00000
Co4 Co   2 e 0.53758  0.25000 0.77194  1.00000
Co5 Co   2 e 0.67740  0.25000 0.18841  1.00000
Co6 Co   2 e -0.07951 0.25000 -0.08978 1.00000
Co7 Co   2 e 0.15912  0.25000 0.65379  1.00000
Ta1 Ta   2 e 0.30326  0.25000 0.03790  1.00000
 
