# CIF file
# This file was generated by FINDSYM
# Harold T. Stokes, Branton J. Campbell, Dorian M. Hatch
# Brigham Young University, Provo, Utah, USA
 
data_findsym-output
_audit_creation_method FINDSYM
 
_symmetry_space_group_name_H-M "C 1 m 1"
_symmetry_Int_Tables_number 8
 
_cell_length_a    8.80582
_cell_length_b    5.07596
_cell_length_c    9.34771
_cell_angle_alpha 90.00000
_cell_angle_beta  118.08886
_cell_angle_gamma 90.00000
 
loop_
_space_group_symop_id
_space_group_symop_operation_xyz
1 x,y,z
2 x,-y,z
3 x+1/2,y+1/2,z
4 x+1/2,-y+1/2,z
 
loop_
_atom_site_label
_atom_site_type_symbol
_atom_site_symmetry_multiplicity
_atom_site_Wyckoff_label
_atom_site_fract_x
_atom_site_fract_y
_atom_site_fract_z
_atom_site_occupancy
Co1  Co   4 b -0.03883 0.25730 0.74986  1.00000
Co2  Co   2 a 0.70417  0.00000 0.74924  1.00000
Co3  Co   2 a 0.51387  0.00000 0.01754  1.00000
Co4  Co   4 b 0.25669  0.25686 0.01746  1.00000
Co5  Co   2 a 0.46053  0.00000 0.25266  1.00000
Co6  Co   2 a -0.03405 0.00000 0.26974  1.00000
Co7  Co   4 b 0.72004  0.24433 0.26709  1.00000
Co8  Co   2 a 0.42083  0.00000 0.50660  1.00000
Co9  Co   2 a -0.08211 0.00000 0.50547  1.00000
Co10 Co   4 b 0.17024  0.25419 0.50308  1.00000
Ta1  Ta   2 a 0.21965  0.00000 0.77073  1.00000
Ta2  Ta   2 a -0.00012 0.00000 -0.00008 1.00000
 
