# CIF file
# This file was generated by FINDSYM
# Harold T. Stokes, Branton J. Campbell, Dorian M. Hatch
# Brigham Young University, Provo, Utah, USA
 
data_findsym-output
_audit_creation_method FINDSYM
 
_symmetry_space_group_name_H-M "P 3 m 1"
_symmetry_Int_Tables_number 156
 
_cell_length_a    5.08078
_cell_length_b    5.08078
_cell_length_c    8.25553
_cell_angle_alpha 90.00000
_cell_angle_beta  90.00000
_cell_angle_gamma 120.00000
 
loop_
_space_group_symop_id
_space_group_symop_operation_xyz
1 x,y,z
2 -y,x-y,z
3 -x+y,-x,z
4 -x+y,y,z
5 -y,-x,z
6 x,x-y,z
 
loop_
_atom_site_label
_atom_site_type_symbol
_atom_site_symmetry_multiplicity
_atom_site_Wyckoff_label
_atom_site_fract_x
_atom_site_fract_y
_atom_site_fract_z
_atom_site_occupancy
Co1 Co   3 d 0.83461 0.16539 0.49739  1.00000
Co2 Co   3 d 0.49521 0.50479 -0.01723 1.00000
Co3 Co   3 d 0.17109 0.82891 0.25048  1.00000
Co4 Co   1 b 0.33333 0.66667 0.49142  1.00000
Co5 Co   3 d 0.17052 0.82948 0.73272  1.00000
Co6 Co   1 c 0.66667 0.33333 0.74636  1.00000
Ta1 Ta   1 c 0.66667 0.33333 0.22829  1.00000
Ta2 Ta   1 a 0.00000 0.00000 -0.00028 1.00000
 
