# CIF file
# This file was generated by FINDSYM
# Harold T. Stokes, Branton J. Campbell, Dorian M. Hatch
# Brigham Young University, Provo, Utah, USA
 
data_findsym-output
_audit_creation_method FINDSYM
 
_symmetry_space_group_name_H-M "C 1 2/m 1"
_symmetry_Int_Tables_number 12
 
_cell_length_a    8.79592
_cell_length_b    5.07329
_cell_length_c    8.38150
_cell_angle_alpha 90.00000
_cell_angle_beta  100.28317
_cell_angle_gamma 90.00000
 
loop_
_space_group_symop_id
_space_group_symop_operation_xyz
1 x,y,z
2 -x,y,-z
3 -x,-y,-z
4 x,-y,z
5 x+1/2,y+1/2,z
6 -x+1/2,y+1/2,-z
7 -x+1/2,-y+1/2,-z
8 x+1/2,-y+1/2,z
 
loop_
_atom_site_label
_atom_site_type_symbol
_atom_site_symmetry_multiplicity
_atom_site_Wyckoff_label
_atom_site_fract_x
_atom_site_fract_y
_atom_site_fract_z
_atom_site_occupancy
Co1 Co   8 j 0.18803 0.25380 0.11910 1.00000
Co2 Co   4 i 0.36025 0.00000 0.63449 1.00000
Co3 Co   4 i 0.06615 0.00000 0.88370 1.00000
Co4 Co   4 i 0.56218 0.00000 0.87754 1.00000
Co5 Co   8 j 0.60380 0.24300 0.63514 1.00000
Ta1 Ta   4 i 0.85329 0.00000 0.61502 1.00000
 
