# CIF file
# This file was generated by FINDSYM
# Harold T. Stokes, Branton J. Campbell, Dorian M. Hatch
# Brigham Young University, Provo, Utah, USA
 
data_findsym-output
_audit_creation_method FINDSYM
 
_symmetry_space_group_name_H-M "C 1 2/m 1"
_symmetry_Int_Tables_number 12
 
_cell_length_a    8.79384
_cell_length_b    5.08210
_cell_length_c    8.38643
_cell_angle_alpha 90.00000
_cell_angle_beta  99.98615
_cell_angle_gamma 90.00000
 
loop_
_space_group_symop_id
_space_group_symop_operation_xyz
1 x,y,z
2 -x,y,-z
3 -x,-y,-z
4 x,-y,z
5 x+1/2,y+1/2,z
6 -x+1/2,y+1/2,-z
7 -x+1/2,-y+1/2,-z
8 x+1/2,-y+1/2,z
 
loop_
_atom_site_label
_atom_site_type_symbol
_atom_site_symmetry_multiplicity
_atom_site_Wyckoff_label
_atom_site_fract_x
_atom_site_fract_y
_atom_site_fract_z
_atom_site_occupancy
Co1 Co   4 i 0.40062 0.00000 0.38108 1.00000
Co2 Co   8 j 0.55895 0.24378 0.86776 1.00000
Co3 Co   8 j 0.85468 0.25451 0.61632 1.00000
Co4 Co   4 i 0.10524 0.00000 0.63104 1.00000
Co5 Co   4 i 0.31576 0.00000 0.86611 1.00000
Ta1 Ta   4 i 0.81452 0.00000 0.88673 1.00000
 
