# CIF file
# This file was generated by FINDSYM
# Harold T. Stokes, Branton J. Campbell, Dorian M. Hatch
# Brigham Young University, Provo, Utah, USA
 
data_findsym-output
_audit_creation_method FINDSYM
 
_symmetry_space_group_name_H-M "P -1"
_symmetry_Int_Tables_number 2
 
_cell_length_a    6.21519
_cell_length_b    8.00664
_cell_length_c    8.02307
_cell_angle_alpha 78.37550
_cell_angle_beta  75.17129
_cell_angle_gamma 75.26426
 
loop_
_space_group_symop_id
_space_group_symop_operation_xyz
1 x,y,z
2 -x,-y,-z
 
loop_
_atom_site_label
_atom_site_type_symbol
_atom_site_symmetry_multiplicity
_atom_site_Wyckoff_label
_atom_site_fract_x
_atom_site_fract_y
_atom_site_fract_z
_atom_site_occupancy
Co1  Co   2 i 0.24421  0.87304  0.88010 1.00000
Co2  Co   1 c 0.00000  0.50000  0.00000 1.00000
Co3  Co   2 i 0.74971  0.37629  0.88465 1.00000
Co4  Co   2 i 0.86839  0.81331  0.06217 1.00000
Co5  Co   2 i 0.25859  0.37802  0.36845 1.00000
Co6  Co   2 i -0.00691 0.25409  0.23768 1.00000
Co7  Co   1 h 0.50000  0.50000  0.50000 1.00000
Co8  Co   2 i 0.37526  0.31919  0.05575 1.00000
Co9  Co   2 i 0.50614  0.74213  0.24388 1.00000
Co10 Co   2 i 0.11626  -0.06030 0.17662 1.00000
Co11 Co   2 i 0.74945  0.87349  0.36567 1.00000
Co12 Co   2 i 0.62026  0.43613  0.18850 1.00000
Co13 Co   2 i 0.37433  0.80532  0.56966 1.00000
Co14 Co   1 d 0.50000  0.00000  0.00000 1.00000
Co15 Co   1 b 0.00000  0.00000  0.50000 1.00000
Co16 Co   2 i 0.86594  0.56464  0.30124 1.00000
Ta1  Ta   2 i 0.11708  0.68767  0.43972 1.00000
Ta2  Ta   2 i 0.36891  0.06021  0.31737 1.00000
 
