# CIF file
# This file was generated by FINDSYM
# Harold T. Stokes, Branton J. Campbell, Dorian M. Hatch
# Brigham Young University, Provo, Utah, USA
 
data_findsym-output
_audit_creation_method FINDSYM
 
_symmetry_space_group_name_H-M "P 1 m 1"
_symmetry_Int_Tables_number 6
 
_cell_length_a    6.74582
_cell_length_b    4.07731
_cell_length_c    13.49141
_cell_angle_alpha 90.00000
_cell_angle_beta  98.01620
_cell_angle_gamma 90.00000
 
loop_
_space_group_symop_id
_space_group_symop_operation_xyz
1 x,y,z
2 x,-y,z
 
loop_
_atom_site_label
_atom_site_type_symbol
_atom_site_symmetry_multiplicity
_atom_site_Wyckoff_label
_atom_site_fract_x
_atom_site_fract_y
_atom_site_fract_z
_atom_site_occupancy
Co1  Co   1 a 0.62062  0.00000 -0.06036 1.00000
Co2  Co   1 b 0.68153  0.50000 0.84450  1.00000
Co3  Co   1 b 0.80208  0.50000 0.51290  1.00000
Co4  Co   1 b -0.06923 0.50000 0.19841  1.00000
Co5  Co   1 a 0.88663  0.00000 0.81282  1.00000
Co6  Co   1 b 0.78050  0.50000 0.02272  1.00000
Co7  Co   1 a 0.13256  0.00000 0.67768  1.00000
Co8  Co   1 a -0.09997 0.00000 0.30908  1.00000
Co9  Co   1 b 0.28760  0.50000 0.26696  1.00000
Co10 Co   1 b 0.41742  0.50000 0.45346  1.00000
Co11 Co   1 b 0.18596  0.50000 0.08574  1.00000
Co12 Co   1 b 0.41455  0.50000 -0.04718 1.00000
Co13 Co   1 a 0.48943  0.00000 0.24054  1.00000
Co14 Co   1 a 0.26424  0.00000 0.37044  1.00000
Co15 Co   1 a 0.62679  0.00000 0.43566  1.00000
Co16 Co   1 b 0.29466  0.50000 0.76871  1.00000
Co17 Co   1 b 0.05945  0.50000 0.39300  1.00000
Co18 Co   1 b 0.05737  0.50000 0.89259  1.00000
Co19 Co   1 a 0.74810  0.00000 0.13232  1.00000
Co20 Co   1 b 0.54204  0.50000 0.13799  1.00000
Co21 Co   1 b 0.53700  0.50000 0.63066  1.00000
Co22 Co   1 a 0.38684  0.00000 0.05897  1.00000
Co23 Co   1 a 0.25581  0.00000 0.86979  1.00000
Co24 Co   1 a 0.37181  0.00000 0.55146  1.00000
Co25 Co   1 b 0.17588  0.50000 0.57596  1.00000
Co26 Co   1 a 0.00199  0.00000 0.49316  1.00000
Co27 Co   1 a 0.74915  0.00000 0.60892  1.00000
Co28 Co   1 a 0.13294  0.00000 0.18839  1.00000
Ta1  Ta   1 b -0.09013 0.50000 0.70404  1.00000
Ta2  Ta   1 a 0.51713  0.00000 0.74446  1.00000
Ta3  Ta   1 b 0.67403  0.50000 0.32536  1.00000
Ta4  Ta   1 a 0.00099  0.00000 0.00003  1.00000
 
