# CIF file
# This file was generated by FINDSYM
# Harold T. Stokes, Branton J. Campbell, Dorian M. Hatch
# Brigham Young University, Provo, Utah, USA
 
data_findsym-output
_audit_creation_method FINDSYM
 
_symmetry_space_group_name_H-M "P 1 2/m 1"
_symmetry_Int_Tables_number 10
 
_cell_length_a    8.75187
_cell_length_b    5.11640
_cell_length_c    8.75360
_cell_angle_alpha 90.00000
_cell_angle_beta  109.95667
_cell_angle_gamma 90.00000
 
loop_
_space_group_symop_id
_space_group_symop_operation_xyz
1 x,y,z
2 -x,y,-z
3 -x,-y,-z
4 x,-y,z
 
loop_
_atom_site_label
_atom_site_type_symbol
_atom_site_symmetry_multiplicity
_atom_site_Wyckoff_label
_atom_site_fract_x
_atom_site_fract_y
_atom_site_fract_z
_atom_site_occupancy
Co1  Co   4 o 0.62879  0.26947 0.12627 1.00000
Co2  Co   2 n 0.62471  0.50000 0.87162 1.00000
Co3  Co   2 n 0.70917  0.50000 0.62947 1.00000
Co4  Co   4 o 0.12210  0.74348 0.12390 1.00000
Co5  Co   2 m 0.29105  0.00000 0.37132 1.00000
Co6  Co   2 n 0.87277  0.50000 0.12072 1.00000
Co7  Co   2 n 0.20438  0.50000 0.61960 1.00000
Co8  Co   4 o -0.04387 0.73706 0.63381 1.00000
Co9  Co   2 m 0.11437  0.00000 0.87770 1.00000
Co10 Co   4 o 0.45787  0.73742 0.61644 1.00000
Ta1  Ta   2 m 0.79269  0.00000 0.37158 1.00000
Ta2  Ta   2 m 0.61653  0.00000 0.87986 1.00000
 
