# CIF file
# This file was generated by FINDSYM
# Harold T. Stokes, Branton J. Campbell, Dorian M. Hatch
# Brigham Young University, Provo, Utah, USA
 
data_findsym-output
_audit_creation_method FINDSYM
 
_symmetry_space_group_name_H-M "P -1"
_symmetry_Int_Tables_number 2
 
_cell_length_a    6.54084
_cell_length_b    6.73585
_cell_length_c    9.30465
_cell_angle_alpha 108.27151
_cell_angle_beta  103.32840
_cell_angle_gamma 98.68563
 
loop_
_space_group_symop_id
_space_group_symop_operation_xyz
1 x,y,z
2 -x,-y,-z
 
loop_
_atom_site_label
_atom_site_type_symbol
_atom_site_symmetry_multiplicity
_atom_site_Wyckoff_label
_atom_site_fract_x
_atom_site_fract_y
_atom_site_fract_z
_atom_site_occupancy
Co1  Co   2 i 0.72024  0.14076  0.74205  1.00000
Co2  Co   2 i 0.64685  0.42996  -0.05523 1.00000
Co3  Co   2 i 0.51738  0.23399  0.38220  1.00000
Co4  Co   2 i 0.60970  -0.04939 0.17840  1.00000
Co5  Co   2 i 0.16773  0.67894  0.70985  1.00000
Co6  Co   2 i -0.02728 0.00257  0.36289  1.00000
Co7  Co   2 i 0.89256  0.79335  0.07791  1.00000
Co8  Co   2 i -0.01435 0.50894  0.87252  1.00000
Co9  Co   2 i 0.71906  0.63508  0.23360  1.00000
Co10 Co   2 i 0.47976  0.26061  0.10704  1.00000
Co11 Co   2 i 0.75707  0.11641  0.00585  1.00000
Co12 Co   2 i 0.59527  0.44566  0.67885  1.00000
Co13 Co   2 i 0.64069  -0.07979 0.44862  1.00000
Co14 Co   2 i 0.75297  0.61405  0.50322  1.00000
Ta1  Ta   2 i -0.09997 0.31287  0.57013  1.00000
Ta2  Ta   2 i 0.13618  0.17924  0.19817  1.00000
 
