# CIF file
# This file was generated by FINDSYM
# Harold T. Stokes, Branton J. Campbell, Dorian M. Hatch
# Brigham Young University, Provo, Utah, USA
 
data_findsym-output
_audit_creation_method FINDSYM
 
_symmetry_space_group_name_H-M "P 3 m 1"
_symmetry_Int_Tables_number 156
 
_cell_length_a    5.08169
_cell_length_b    5.08169
_cell_length_c    24.69113
_cell_angle_alpha 90.00000
_cell_angle_beta  90.00000
_cell_angle_gamma 120.00000
 
loop_
_space_group_symop_id
_space_group_symop_operation_xyz
1 x,y,z
2 -y,x-y,z
3 -x+y,-x,z
4 -x+y,y,z
5 -y,-x,z
6 x,x-y,z
 
loop_
_atom_site_label
_atom_site_type_symbol
_atom_site_symmetry_multiplicity
_atom_site_Wyckoff_label
_atom_site_fract_x
_atom_site_fract_y
_atom_site_fract_z
_atom_site_occupancy
Co1  Co   3 d 0.49537 0.50463 0.00676  1.00000
Co2  Co   3 d 0.82870 0.17130 0.67338  1.00000
Co3  Co   3 d 0.16202 0.83798 0.34012  1.00000
Co4  Co   3 d 0.83763 0.16237 0.83446  1.00000
Co5  Co   3 d 0.17097 0.82903 0.50115  1.00000
Co6  Co   3 d 0.50430 0.49570 0.16792  1.00000
Co7  Co   3 d 0.17125 0.82875 -0.08292 1.00000
Co8  Co   3 d 0.50459 0.49541 0.58376  1.00000
Co9  Co   3 d 0.83794 0.16206 0.25048  1.00000
Co10 Co   1 b 0.33333 0.66667 0.41831  1.00000
Co11 Co   1 c 0.66667 0.33333 0.08500  1.00000
Co12 Co   1 a 0.00000 0.00000 0.75158  1.00000
Co13 Co   3 d 0.50096 0.49904 0.75611  1.00000
Co14 Co   3 d 0.83425 0.16575 0.42283  1.00000
Co15 Co   3 d 0.16761 0.83239 0.08951  1.00000
Co16 Co   1 b 0.33333 0.66667 0.83568  1.00000
Co17 Co   1 c 0.66667 0.33333 0.50239  1.00000
Co18 Co   1 a 0.00000 0.00000 0.16907  1.00000
Ta1  Ta   1 b 0.33333 0.66667 0.25753  1.00000
Ta2  Ta   1 c 0.66667 0.33333 -0.07586 1.00000
Ta3  Ta   1 a 0.00000 0.00000 0.59077  1.00000
Ta4  Ta   1 b 0.33333 0.66667 0.66652  1.00000
Ta5  Ta   1 c 0.66667 0.33333 0.33324  1.00000
Ta6  Ta   1 a 0.00000 0.00000 -0.00012 1.00000
 
