# CIF file
# This file was generated by FINDSYM
# Harold T. Stokes, Branton J. Campbell, Dorian M. Hatch
# Brigham Young University, Provo, Utah, USA
 
data_findsym-output
_audit_creation_method FINDSYM
 
_symmetry_space_group_name_H-M "I 4 m m"
_symmetry_Int_Tables_number 107
 
_cell_length_a    7.16917
_cell_length_b    7.16917
_cell_length_c    14.39219
_cell_angle_alpha 90.00000
_cell_angle_beta  90.00000
_cell_angle_gamma 90.00000
 
loop_
_space_group_symop_id
_space_group_symop_operation_xyz
1 x,y,z
2 -x,-y,z
3 -y,x,z
4 y,-x,z
5 -x,y,z
6 x,-y,z
7 y,x,z
8 -y,-x,z
9 x+1/2,y+1/2,z+1/2
10 -x+1/2,-y+1/2,z+1/2
11 -y+1/2,x+1/2,z+1/2
12 y+1/2,-x+1/2,z+1/2
13 -x+1/2,y+1/2,z+1/2
14 x+1/2,-y+1/2,z+1/2
15 y+1/2,x+1/2,z+1/2
16 -y+1/2,-x+1/2,z+1/2
 
loop_
_atom_site_label
_atom_site_type_symbol
_atom_site_symmetry_multiplicity
_atom_site_Wyckoff_label
_atom_site_fract_x
_atom_site_fract_y
_atom_site_fract_z
_atom_site_occupancy
Co1 Co   8 d 0.24814 0.00000 0.12479  1.00000
Co2 Co   8 c 0.25728 0.25728 0.24761  1.00000
Co3 Co   2 a 0.00000 0.00000 0.74572  1.00000
Co4 Co   8 d 0.75150 0.00000 0.62827  1.00000
Co5 Co   4 b 0.00000 0.50000 0.74564  1.00000
Co6 Co   8 d 0.26089 0.00000 0.36904  1.00000
Co7 Co   8 d 0.75893 0.00000 0.86904  1.00000
Co8 Co   8 c 0.74320 0.74320 0.49801  1.00000
Co9 Co   2 a 0.00000 0.00000 -0.00090 1.00000
Ta1 Ta   2 a 0.00000 0.00000 0.49310  1.00000
Ta2 Ta   4 b 0.00000 0.50000 0.49895  1.00000
Ta3 Ta   2 a 0.00000 0.00000 0.25222  1.00000
 
