# CIF file
# This file was generated by FINDSYM
# Harold T. Stokes, Branton J. Campbell, Dorian M. Hatch
# Brigham Young University, Provo, Utah, USA
 
data_findsym-output
_audit_creation_method FINDSYM
 
_symmetry_space_group_name_H-M "P -1"
_symmetry_Int_Tables_number 2
 
_cell_length_a    4.80418
_cell_length_b    4.80840
_cell_length_c    7.60944
_cell_angle_alpha 79.64557
_cell_angle_beta  86.29622
_cell_angle_gamma 84.59853
 
loop_
_space_group_symop_id
_space_group_symop_operation_xyz
1 x,y,z
2 -x,-y,-z
 
loop_
_atom_site_label
_atom_site_type_symbol
_atom_site_symmetry_multiplicity
_atom_site_Wyckoff_label
_atom_site_fract_x
_atom_site_fract_y
_atom_site_fract_z
_atom_site_occupancy
Fe1 Fe   2 i 0.77812  0.89002  0.47189 1.00000
Fe2 Fe   2 i 0.51369  0.25838  0.25342 1.00000
Fe3 Fe   2 i 0.63439  0.81675  0.11162 1.00000
Fe4 Fe   2 i 0.36304  0.67304  0.39828 1.00000
Fe5 Fe   2 i 0.22213  0.59682  0.03657 1.00000
Fe6 Fe   2 i -0.07164 0.47652  0.32652 1.00000
Ta1 Ta   2 i -0.07507 -0.03900 0.81642 1.00000
 
