# CIF file
# This file was generated by FINDSYM
# Harold T. Stokes, Branton J. Campbell, Dorian M. Hatch
# Brigham Young University, Provo, Utah, USA
 
data_findsym-output
_audit_creation_method FINDSYM
 
_symmetry_space_group_name_H-M "P -1"
_symmetry_Int_Tables_number 2
 
_cell_length_a    5.03498
_cell_length_b    6.45023
_cell_length_c    6.48989
_cell_angle_alpha 113.73849
_cell_angle_beta  104.37220
_cell_angle_gamma 104.75487
 
loop_
_space_group_symop_id
_space_group_symop_operation_xyz
1 x,y,z
2 -x,-y,-z
 
loop_
_atom_site_label
_atom_site_type_symbol
_atom_site_symmetry_multiplicity
_atom_site_Wyckoff_label
_atom_site_fract_x
_atom_site_fract_y
_atom_site_fract_z
_atom_site_occupancy
Fe1 Fe   2 i 0.57250 0.79378  0.42521 1.00000
Fe2 Fe   2 i 0.35549 -0.07105 0.14510 1.00000
Fe3 Fe   2 i 0.29599 0.65046  0.72399 1.00000
Fe4 Fe   2 i 0.15218 0.07578  0.84881 1.00000
Fe5 Fe   2 i 0.07008 0.78436  0.42546 1.00000
Fe6 Fe   1 c 0.00000 0.50000  0.00000 1.00000
Fe7 Fe   1 e 0.50000 0.50000  0.00000 1.00000
Ta1 Ta   2 i 0.20457 0.35164  0.28157 1.00000
 
