# CIF file
# This file was generated by FINDSYM
# Harold T. Stokes, Branton J. Campbell, Dorian M. Hatch
# Brigham Young University, Provo, Utah, USA
 
data_findsym-output
_audit_creation_method FINDSYM
 
_symmetry_space_group_name_H-M "P 1 2/m 1"
_symmetry_Int_Tables_number 10
 
_cell_length_a    4.84962
_cell_length_b    4.07305
_cell_length_c    8.71074
_cell_angle_alpha 90.00000
_cell_angle_beta  95.38347
_cell_angle_gamma 90.00000
 
loop_
_space_group_symop_id
_space_group_symop_operation_xyz
1 x,y,z
2 -x,y,-z
3 -x,-y,-z
4 x,-y,z
 
loop_
_atom_site_label
_atom_site_type_symbol
_atom_site_symmetry_multiplicity
_atom_site_Wyckoff_label
_atom_site_fract_x
_atom_site_fract_y
_atom_site_fract_z
_atom_site_occupancy
Fe1 Fe   1 g 0.50000  0.00000 0.50000 1.00000
Fe2 Fe   2 n -0.05958 0.50000 0.85984 1.00000
Fe3 Fe   2 n 0.78772  0.50000 0.56999 1.00000
Fe4 Fe   2 m 0.07533  0.00000 0.63809 1.00000
Fe5 Fe   2 n 0.34583  0.50000 0.70950 1.00000
Fe6 Fe   1 e 0.50000  0.50000 0.00000 1.00000
Fe7 Fe   2 m 0.79168  0.00000 0.07407 1.00000
Ta1 Ta   2 m 0.64257  0.00000 0.78537 1.00000
 
