# CIF file
# This file was generated by FINDSYM
# Harold T. Stokes, Branton J. Campbell, Dorian M. Hatch
# Brigham Young University, Provo, Utah, USA
 
data_findsym-output
_audit_creation_method FINDSYM
 
_symmetry_space_group_name_H-M "P -1"
_symmetry_Int_Tables_number 2
 
_cell_length_a    4.79714
_cell_length_b    5.77972
_cell_length_c    7.15982
_cell_angle_alpha 66.33486
_cell_angle_beta  76.52269
_cell_angle_gamma 72.48794
 
loop_
_space_group_symop_id
_space_group_symop_operation_xyz
1 x,y,z
2 -x,-y,-z
 
loop_
_atom_site_label
_atom_site_type_symbol
_atom_site_symmetry_multiplicity
_atom_site_Wyckoff_label
_atom_site_fract_x
_atom_site_fract_y
_atom_site_fract_z
_atom_site_occupancy
Fe1 Fe   1 f 0.50000  0.00000  0.50000  1.00000
Fe2 Fe   2 i 0.07963  0.79196  0.63995  1.00000
Fe3 Fe   2 i -0.07966 0.72143  0.36144  1.00000
Fe4 Fe   2 i 0.35440  -0.07136 0.21460  1.00000
Fe5 Fe   1 h 0.50000  0.50000  0.50000  1.00000
Fe6 Fe   2 i 0.78906  0.13120  0.07579  1.00000
Fe7 Fe   2 i 0.20935  0.34849  -0.07342 1.00000
Ta1 Ta   2 i 0.34946  0.42988  0.21702  1.00000
 
