# CIF file
# This file was generated by FINDSYM
# Harold T. Stokes, Branton J. Campbell, Dorian M. Hatch
# Brigham Young University, Provo, Utah, USA
 
data_findsym-output
_audit_creation_method FINDSYM
 
_symmetry_space_group_name_H-M "P 1 2/m 1"
_symmetry_Int_Tables_number 10
 
_cell_length_a    6.40494
_cell_length_b    2.98743
_cell_length_c    9.06606
_cell_angle_alpha 90.00000
_cell_angle_beta  98.24755
_cell_angle_gamma 90.00000
 
loop_
_space_group_symop_id
_space_group_symop_operation_xyz
1 x,y,z
2 -x,y,-z
3 -x,-y,-z
4 x,-y,z
 
loop_
_atom_site_label
_atom_site_type_symbol
_atom_site_symmetry_multiplicity
_atom_site_Wyckoff_label
_atom_site_fract_x
_atom_site_fract_y
_atom_site_fract_z
_atom_site_occupancy
Fe1 Fe   2 n -0.06224 0.50000 0.63913 1.00000
Fe2 Fe   2 n 0.21056  0.50000 0.06201 1.00000
Fe3 Fe   2 m 0.21318  0.00000 0.57241 1.00000
Fe4 Fe   2 m -0.06883 0.00000 0.14354 1.00000
Fe5 Fe   2 n 0.65381  0.50000 0.21166 1.00000
Fe6 Fe   1 d 0.50000  0.00000 0.00000 1.00000
Fe7 Fe   1 h 0.50000  0.50000 0.50000 1.00000
Ta1 Ta   2 m 0.64437  0.00000 0.71761 1.00000
 
