# CIF file
# This file was generated by FINDSYM
# Harold T. Stokes, Branton J. Campbell, Dorian M. Hatch
# Brigham Young University, Provo, Utah, USA
 
data_findsym-output
_audit_creation_method FINDSYM
 
_symmetry_space_group_name_H-M "C 1 m 1"
_symmetry_Int_Tables_number 8
 
_cell_length_a    16.92240
_cell_length_b    4.08969
_cell_length_c    5.03827
_cell_angle_alpha 90.00000
_cell_angle_beta  101.17690
_cell_angle_gamma 90.00000
 
loop_
_space_group_symop_id
_space_group_symop_operation_xyz
1 x,y,z
2 x,-y,z
3 x+1/2,y+1/2,z
4 x+1/2,-y+1/2,z
 
loop_
_atom_site_label
_atom_site_type_symbol
_atom_site_symmetry_multiplicity
_atom_site_Wyckoff_label
_atom_site_fract_x
_atom_site_fract_y
_atom_site_fract_z
_atom_site_occupancy
Fe1  Fe   2 a 0.42736  0.00000 0.28751  1.00000
Fe2  Fe   2 a 0.28630  0.00000 0.85729  1.00000
Fe3  Fe   2 a 0.85680  0.00000 0.57239  1.00000
Fe4  Fe   2 a 0.14333  0.00000 0.43205  1.00000
Fe5  Fe   2 a 0.57027  0.00000 0.71289  1.00000
Fe6  Fe   2 a 0.57106  0.00000 0.23139  1.00000
Fe7  Fe   2 a 0.14255  0.00000 -0.08654 1.00000
Fe8  Fe   2 a 0.28852  0.00000 0.36725  1.00000
Fe9  Fe   2 a 0.42513  0.00000 0.77753  1.00000
Fe10 Fe   2 a -0.00061 0.00000 0.50001  1.00000
Fe11 Fe   2 a 0.71419  0.00000 0.64491  1.00000
Fe12 Fe   2 a 0.85680  0.00000 0.07238  1.00000
Ta1  Ta   2 a 0.71362  0.00000 0.14471  1.00000
Ta2  Ta   2 a -0.00002 0.00000 0.00018  1.00000
 
