# CIF file
# This file was generated by FINDSYM
# Harold T. Stokes, Branton J. Campbell, Dorian M. Hatch
# Brigham Young University, Provo, Utah, USA
 
data_findsym-output
_audit_creation_method FINDSYM
 
_symmetry_space_group_name_H-M "P m m 2"
_symmetry_Int_Tables_number 25
 
_cell_length_a    4.07539
_cell_length_b    4.08638
_cell_length_c    20.56192
_cell_angle_alpha 90.00000
_cell_angle_beta  90.00000
_cell_angle_gamma 90.00000
 
loop_
_space_group_symop_id
_space_group_symop_operation_xyz
1 x,y,z
2 -x,-y,z
3 -x,y,z
4 x,-y,z
 
loop_
_atom_site_label
_atom_site_type_symbol
_atom_site_symmetry_multiplicity
_atom_site_Wyckoff_label
_atom_site_fract_x
_atom_site_fract_y
_atom_site_fract_z
_atom_site_occupancy
Fe1  Fe   1 b 0.00000 0.50000 0.06822  1.00000
Fe2  Fe   1 b 0.00000 0.50000 -0.06809 1.00000
Fe3  Fe   1 a 0.00000 0.00000 0.56819  1.00000
Fe4  Fe   1 a 0.00000 0.00000 0.43183  1.00000
Fe5  Fe   1 b 0.00000 0.50000 0.21589  1.00000
Fe6  Fe   1 b 0.00000 0.50000 0.78416  1.00000
Fe7  Fe   1 a 0.00000 0.00000 0.71593  1.00000
Fe8  Fe   1 a 0.00000 0.00000 0.28411  1.00000
Fe9  Fe   1 d 0.50000 0.50000 0.28344  1.00000
Fe10 Fe   1 d 0.50000 0.50000 0.71662  1.00000
Fe11 Fe   1 c 0.50000 0.00000 0.78351  1.00000
Fe12 Fe   1 c 0.50000 0.00000 0.21657  1.00000
Fe13 Fe   1 d 0.50000 0.50000 0.14188  1.00000
Fe14 Fe   1 d 0.50000 0.50000 0.85820  1.00000
Fe15 Fe   1 c 0.50000 0.00000 0.64190  1.00000
Fe16 Fe   1 c 0.50000 0.00000 0.35814  1.00000
Fe17 Fe   1 b 0.00000 0.50000 0.50001  1.00000
Fe18 Fe   1 a 0.00000 0.00000 0.00007  1.00000
Fe19 Fe   1 d 0.50000 0.50000 0.00007  1.00000
Fe20 Fe   1 c 0.50000 0.00000 0.50001  1.00000
Fe21 Fe   1 d 0.50000 0.50000 0.56811  1.00000
Fe22 Fe   1 d 0.50000 0.50000 0.43192  1.00000
Fe23 Fe   1 c 0.50000 0.00000 0.06813  1.00000
Fe24 Fe   1 c 0.50000 0.00000 -0.06800 1.00000
Ta1  Ta   1 b 0.00000 0.50000 0.64111  1.00000
Ta2  Ta   1 b 0.00000 0.50000 0.35893  1.00000
Ta3  Ta   1 a 0.00000 0.00000 0.14111  1.00000
Ta4  Ta   1 a 0.00000 0.00000 0.85899  1.00000
 
