# CIF file
# This file was generated by FINDSYM
# Harold T. Stokes, Branton J. Campbell, Dorian M. Hatch
# Brigham Young University, Provo, Utah, USA
 
data_findsym-output
_audit_creation_method FINDSYM
 
_symmetry_space_group_name_H-M "A m m 2"
_symmetry_Int_Tables_number 38
 
_cell_length_a    2.78824
_cell_length_b    2.80327
_cell_length_c    18.78046
_cell_angle_alpha 90.00000
_cell_angle_beta  90.00000
_cell_angle_gamma 90.00000
 
loop_
_space_group_symop_id
_space_group_symop_operation_xyz
1 x,y,z
2 -x,-y,z
3 x,-y,z
4 -x,y,z
5 x,y+1/2,z+1/2
6 -x,-y+1/2,z+1/2
7 x,-y+1/2,z+1/2
8 -x,y+1/2,z+1/2
 
loop_
_atom_site_label
_atom_site_type_symbol
_atom_site_symmetry_multiplicity
_atom_site_Wyckoff_label
_atom_site_fract_x
_atom_site_fract_y
_atom_site_fract_z
_atom_site_occupancy
Fe1 Fe   2 b 0.50000 0.00000 0.15365  1.00000
Fe2 Fe   2 b 0.50000 0.00000 0.30624  1.00000
Fe3 Fe   2 a 0.00000 0.00000 0.72993  1.00000
Fe4 Fe   2 b 0.50000 0.00000 0.46261  1.00000
Fe5 Fe   2 a 0.00000 0.00000 0.88208  1.00000
Fe6 Fe   2 a 0.00000 0.00000 0.57895  1.00000
B1  B    2 a 0.00000 0.00000 -0.00024 1.00000
 
