# CIF file
# This file was generated by FINDSYM
# Harold T. Stokes, Branton J. Campbell, Dorian M. Hatch
# Brigham Young University, Provo, Utah, USA
 
data_findsym-output
_audit_creation_method FINDSYM
 
_symmetry_space_group_name_H-M "P 21/m 21/m 2/n (origin choice 2)"
_symmetry_Int_Tables_number 59
 
_cell_length_a    8.18711
_cell_length_b    4.08293
_cell_length_c    5.81716
_cell_angle_alpha 90.00000
_cell_angle_beta  90.00000
_cell_angle_gamma 90.00000
 
loop_
_space_group_symop_id
_space_group_symop_operation_xyz
1 x,y,z
2 x+1/2,-y,-z
3 -x,y+1/2,-z
4 -x+1/2,-y+1/2,z
5 -x,-y,-z
6 -x+1/2,y,z
7 x,-y+1/2,z
8 x+1/2,y+1/2,-z
 
loop_
_atom_site_label
_atom_site_type_symbol
_atom_site_symmetry_multiplicity
_atom_site_Wyckoff_label
_atom_site_fract_x
_atom_site_fract_y
_atom_site_fract_z
_atom_site_occupancy
Fe1 Fe   4 f 0.50325  0.25000 0.86854 1.00000
Fe2 Fe   2 b 0.25000  0.75000 0.86480 1.00000
Fe3 Fe   4 f -0.00319 0.25000 0.37987 1.00000
Fe4 Fe   2 b 0.25000  0.75000 0.38663 1.00000
Fe5 Fe   2 a 0.25000  0.25000 0.62589 1.00000
Ta1 Ta   2 a 0.25000  0.25000 0.12497 1.00000
 
