# CIF file
# This file was generated by FINDSYM
# Harold T. Stokes, Branton J. Campbell, Dorian M. Hatch
# Brigham Young University, Provo, Utah, USA
 
data_findsym-output
_audit_creation_method FINDSYM
 
_symmetry_space_group_name_H-M "P -1"
_symmetry_Int_Tables_number 2
 
_cell_length_a    4.81921
_cell_length_b    5.77114
_cell_length_c    7.50345
_cell_angle_alpha 100.84916
_cell_angle_beta  93.26200
_cell_angle_gamma 107.49187
 
loop_
_space_group_symop_id
_space_group_symop_operation_xyz
1 x,y,z
2 -x,-y,-z
 
loop_
_atom_site_label
_atom_site_type_symbol
_atom_site_symmetry_multiplicity
_atom_site_Wyckoff_label
_atom_site_fract_x
_atom_site_fract_y
_atom_site_fract_z
_atom_site_occupancy
Fe1 Fe   2 i -0.05484 0.03805  0.68629  1.00000
Fe2 Fe   2 i 0.30997  0.33477  0.55818  1.00000
Fe3 Fe   2 i 0.56326  0.21816  0.81041  1.00000
Fe4 Fe   2 i 0.17524  0.40294  -0.06484 1.00000
Fe5 Fe   2 i -0.05939 0.52346  0.68093  1.00000
Fe6 Fe   2 i 0.30760  0.84787  0.55968  1.00000
Fe7 Fe   2 i 0.17962  -0.09648 -0.06580 1.00000
Ta1 Ta   2 i 0.43833  0.28282  0.18799  1.00000
 
