# CIF file
# This file was generated by FINDSYM
# Harold T. Stokes, Branton J. Campbell, Dorian M. Hatch
# Brigham Young University, Provo, Utah, USA
 
data_findsym-output
_audit_creation_method FINDSYM
 
_symmetry_space_group_name_H-M "C 1 2/m 1"
_symmetry_Int_Tables_number 12
 
_cell_length_a    13.54781
_cell_length_b    4.08548
_cell_length_c    7.10395
_cell_angle_alpha 90.00000
_cell_angle_beta  99.76219
_cell_angle_gamma 90.00000
 
loop_
_space_group_symop_id
_space_group_symop_operation_xyz
1 x,y,z
2 -x,y,-z
3 -x,-y,-z
4 x,-y,z
5 x+1/2,y+1/2,z
6 -x+1/2,y+1/2,-z
7 -x+1/2,-y+1/2,-z
8 x+1/2,-y+1/2,z
 
loop_
_atom_site_label
_atom_site_type_symbol
_atom_site_symmetry_multiplicity
_atom_site_Wyckoff_label
_atom_site_fract_x
_atom_site_fract_y
_atom_site_fract_z
_atom_site_occupancy
Fe1 Fe   4 i 0.56658  0.00000 0.19753 1.00000
Fe2 Fe   4 i 0.31151  0.00000 0.44410 1.00000
Fe3 Fe   4 i 0.18645  0.00000 0.07216 1.00000
Fe4 Fe   4 i 0.75194  0.00000 0.25399 1.00000
Fe5 Fe   4 i 0.12577  0.00000 0.37779 1.00000
Fe6 Fe   2 d 0.00000  0.50000 0.50000 1.00000
Fe7 Fe   2 a 0.00000  0.00000 0.00000 1.00000
Fe8 Fe   4 i -0.05882 0.00000 0.31990 1.00000
Ta1 Ta   4 i 0.62399  0.00000 0.87507 1.00000
 
