# CIF file
# This file was generated by FINDSYM
# Harold T. Stokes, Branton J. Campbell, Dorian M. Hatch
# Brigham Young University, Provo, Utah, USA
 
data_findsym-output
_audit_creation_method FINDSYM
 
_symmetry_space_group_name_H-M "P 1 21/m 1"
_symmetry_Int_Tables_number 11
 
_cell_length_a    5.02225
_cell_length_b    4.08101
_cell_length_c    9.60422
_cell_angle_alpha 90.00000
_cell_angle_beta  100.18840
_cell_angle_gamma 90.00000
 
loop_
_space_group_symop_id
_space_group_symop_operation_xyz
1 x,y,z
2 -x,y+1/2,-z
3 -x,-y,-z
4 x,-y+1/2,z
 
loop_
_atom_site_label
_atom_site_type_symbol
_atom_site_symmetry_multiplicity
_atom_site_Wyckoff_label
_atom_site_fract_x
_atom_site_fract_y
_atom_site_fract_z
_atom_site_occupancy
Fe1 Fe   2 e 0.56233 0.25000 0.68520  1.00000
Fe2 Fe   2 e 0.06995 0.25000 0.68112  1.00000
Fe3 Fe   2 e 0.79789 0.25000 -0.06232 1.00000
Fe4 Fe   2 e 0.31708 0.25000 0.44235  1.00000
Fe5 Fe   2 e 0.31466 0.25000 -0.06424 1.00000
Fe6 Fe   2 e 0.56131 0.25000 0.18828  1.00000
Fe7 Fe   2 e 0.81059 0.25000 0.43902  1.00000
Ta1 Ta   2 e 0.06195 0.25000 0.18879  1.00000
 
