# CIF file
# This file was generated by FINDSYM
# Harold T. Stokes, Branton J. Campbell, Dorian M. Hatch
# Brigham Young University, Provo, Utah, USA
 
data_findsym-output
_audit_creation_method FINDSYM
 
_symmetry_space_group_name_H-M "C 1 m 1"
_symmetry_Int_Tables_number 8
 
_cell_length_a    16.28460
_cell_length_b    4.72342
_cell_length_c    4.78199
_cell_angle_alpha 90.00000
_cell_angle_beta  99.12929
_cell_angle_gamma 90.00000
 
loop_
_space_group_symop_id
_space_group_symop_operation_xyz
1 x,y,z
2 x,-y,z
3 x+1/2,y+1/2,z
4 x+1/2,-y+1/2,z
 
loop_
_atom_site_label
_atom_site_type_symbol
_atom_site_symmetry_multiplicity
_atom_site_Wyckoff_label
_atom_site_fract_x
_atom_site_fract_y
_atom_site_fract_z
_atom_site_occupancy
Fe1 Fe   2 a 0.44572  0.00000 0.69153  1.00000
Fe2 Fe   2 a 0.74520  0.00000 0.12019  1.00000
Fe3 Fe   2 a 0.48216  0.00000 0.23799  1.00000
Fe4 Fe   4 b 0.85109  0.25143 -0.06625 1.00000
Fe5 Fe   2 a 0.74593  0.00000 0.62210  1.00000
Fe6 Fe   4 b 0.13769  0.24734 0.30278  1.00000
Fe7 Fe   2 a 0.88905  0.00000 0.44561  1.00000
Fe8 Fe   2 a 0.03534  0.00000 0.53091  1.00000
Ta1 Ta   2 a 0.19417  0.00000 0.84174  1.00000
Ta2 Ta   2 a 0.59420  0.00000 0.77503  1.00000
Ta3 Ta   2 a 0.30301  0.00000 0.39248  1.00000
Ta4 Ta   2 a -0.00010 0.00000 0.00058  1.00000
 
