# CIF file
# This file was generated by FINDSYM
# Harold T. Stokes, Branton J. Campbell, Dorian M. Hatch
# Brigham Young University, Provo, Utah, USA
 
data_findsym-output
_audit_creation_method FINDSYM
 
_symmetry_space_group_name_H-M "C m c 21"
_symmetry_Int_Tables_number 36
 
_cell_length_a    4.71680
_cell_length_b    12.38460
_cell_length_c    6.25049
_cell_angle_alpha 90.00000
_cell_angle_beta  90.00000
_cell_angle_gamma 90.00000
 
loop_
_space_group_symop_id
_space_group_symop_operation_xyz
1 x,y,z
2 -x,-y,z+1/2
3 -x,y,z
4 x,-y,z+1/2
5 x+1/2,y+1/2,z
6 -x+1/2,-y+1/2,z+1/2
7 -x+1/2,y+1/2,z
8 x+1/2,-y+1/2,z+1/2
 
loop_
_atom_site_label
_atom_site_type_symbol
_atom_site_symmetry_multiplicity
_atom_site_Wyckoff_label
_atom_site_fract_x
_atom_site_fract_y
_atom_site_fract_z
_atom_site_occupancy
Fe1 Fe   8 b 0.75496 0.36336  0.82334  1.00000
Fe2 Fe   4 a 0.00000 0.75125  0.56611  1.00000
Fe3 Fe   4 a 0.00000 0.83049  0.19783  1.00000
Fe4 Fe   4 a 0.00000 0.46473  0.13844  1.00000
Ta1 Ta   4 a 0.00000 0.67322  -0.05820 1.00000
Ta2 Ta   4 a 0.00000 -0.02753 0.50009  1.00000
 
