# CIF file
# This file was generated by FINDSYM
# Harold T. Stokes, Branton J. Campbell, Dorian M. Hatch
# Brigham Young University, Provo, Utah, USA
 
data_findsym-output
_audit_creation_method FINDSYM
 
_symmetry_space_group_name_H-M "C 1 m 1"
_symmetry_Int_Tables_number 8
 
_cell_length_a    17.29897
_cell_length_b    4.18855
_cell_length_c    5.13931
_cell_angle_alpha 90.00000
_cell_angle_beta  101.38308
_cell_angle_gamma 90.00000
 
loop_
_space_group_symop_id
_space_group_symop_operation_xyz
1 x,y,z
2 x,-y,z
3 x+1/2,y+1/2,z
4 x+1/2,-y+1/2,z
 
loop_
_atom_site_label
_atom_site_type_symbol
_atom_site_symmetry_multiplicity
_atom_site_Wyckoff_label
_atom_site_fract_x
_atom_site_fract_y
_atom_site_fract_z
_atom_site_occupancy
Fe1  Fe   2 a 0.42794 0.00000 0.27584  1.00000
Fe2  Fe   2 a 0.56691 0.00000 0.22684  1.00000
Fe3  Fe   2 a 0.56815 0.00000 0.70703  1.00000
Fe4  Fe   2 a 0.28214 0.00000 0.33589  1.00000
Fe5  Fe   2 a 0.70883 0.00000 0.62894  1.00000
Fe6  Fe   2 a 0.13911 0.00000 0.42001  1.00000
Fe7  Fe   2 a 0.13831 0.00000 -0.09532 1.00000
Fe8  Fe   2 a 0.42823 0.00000 0.77296  1.00000
Fe9  Fe   2 a 0.85392 0.00000 0.04775  1.00000
Fe10 Fe   2 a 0.00180 0.00000 0.49760  1.00000
Ta1  Ta   2 a 0.70409 0.00000 0.13109  1.00000
Ta2  Ta   2 a 0.28234 0.00000 0.83684  1.00000
Ta3  Ta   2 a 0.85852 0.00000 0.54094  1.00000
Ta4  Ta   2 a 0.00007 0.00000 -0.00041 1.00000
 
