# CIF file
# This file was generated by FINDSYM
# Harold T. Stokes, Branton J. Campbell, Dorian M. Hatch
# Brigham Young University, Provo, Utah, USA
 
data_findsym-output
_audit_creation_method FINDSYM
 
_symmetry_space_group_name_H-M "C 1 m 1"
_symmetry_Int_Tables_number 8
 
_cell_length_a    16.41227
_cell_length_b    4.71473
_cell_length_c    4.77868
_cell_angle_alpha 90.00000
_cell_angle_beta  99.67784
_cell_angle_gamma 90.00000
 
loop_
_space_group_symop_id
_space_group_symop_operation_xyz
1 x,y,z
2 x,-y,z
3 x+1/2,y+1/2,z
4 x+1/2,-y+1/2,z
 
loop_
_atom_site_label
_atom_site_type_symbol
_atom_site_symmetry_multiplicity
_atom_site_Wyckoff_label
_atom_site_fract_x
_atom_site_fract_y
_atom_site_fract_z
_atom_site_occupancy
Fe1 Fe   2 a 0.59995  0.00000 0.78437  1.00000
Fe2 Fe   4 b 0.75152  0.25287 0.86306  1.00000
Fe3 Fe   2 a 0.85706  0.00000 0.17714  1.00000
Fe4 Fe   2 a 0.85651  0.00000 0.67519  1.00000
Fe5 Fe   2 a 0.40565  0.00000 -0.03720 1.00000
Fe6 Fe   2 a 0.15306  0.00000 0.09704  1.00000
Fe7 Fe   4 b 0.46519  0.24428 0.49065  1.00000
Fe8 Fe   2 a 0.55569  0.00000 0.22942  1.00000
Ta1 Ta   2 a 0.70652  0.00000 0.33277  1.00000
Ta2 Ta   2 a 0.11702  0.00000 0.56115  1.00000
Ta3 Ta   2 a 0.31363  0.00000 0.40922  1.00000
Ta4 Ta   2 a -0.00012 0.00000 0.00055  1.00000
 
