# CIF file
# This file was generated by FINDSYM
# Harold T. Stokes, Branton J. Campbell, Dorian M. Hatch
# Brigham Young University, Provo, Utah, USA
 
data_findsym-output
_audit_creation_method FINDSYM
 
_symmetry_space_group_name_H-M "C 1 m 1"
_symmetry_Int_Tables_number 8
 
_cell_length_a    16.23707
_cell_length_b    4.72854
_cell_length_c    4.83576
_cell_angle_alpha 90.00000
_cell_angle_beta  99.47698
_cell_angle_gamma 90.00000
 
loop_
_space_group_symop_id
_space_group_symop_operation_xyz
1 x,y,z
2 x,-y,z
3 x+1/2,y+1/2,z
4 x+1/2,-y+1/2,z
 
loop_
_atom_site_label
_atom_site_type_symbol
_atom_site_symmetry_multiplicity
_atom_site_Wyckoff_label
_atom_site_fract_x
_atom_site_fract_y
_atom_site_fract_z
_atom_site_occupancy
Fe1 Fe   4 b 0.15314  0.25128 0.03523  1.00000
Fe2 Fe   2 a 0.25641  0.00000 0.84282  1.00000
Fe3 Fe   2 a 0.80901  0.00000 0.12340  1.00000
Fe4 Fe   2 a -0.03567 0.00000 0.45176  1.00000
Fe5 Fe   4 b 0.86398  0.24619 0.65567  1.00000
Fe6 Fe   2 a 0.25596  0.00000 0.34489  1.00000
Fe7 Fe   2 a 0.11387  0.00000 0.52703  1.00000
Fe8 Fe   2 a 0.55440  0.00000 0.24816  1.00000
Ta1 Ta   2 a 0.39906  0.00000 0.16473  1.00000
Ta2 Ta   2 a 0.70789  0.00000 0.57245  1.00000
Ta3 Ta   2 a 0.52229  0.00000 0.70092  1.00000
Ta4 Ta   2 a 0.00002  0.00000 -0.00013 1.00000
 
