# CIF file
# This file was generated by FINDSYM
# Harold T. Stokes, Branton J. Campbell, Dorian M. Hatch
# Brigham Young University, Provo, Utah, USA
 
data_findsym-output
_audit_creation_method FINDSYM
 
_symmetry_space_group_name_H-M "P -1"
_symmetry_Int_Tables_number 2
 
_cell_length_a    4.80735
_cell_length_b    6.17872
_cell_length_c    6.64770
_cell_angle_alpha 68.14863
_cell_angle_beta  88.87402
_cell_angle_gamma 80.91828
 
loop_
_space_group_symop_id
_space_group_symop_operation_xyz
1 x,y,z
2 -x,-y,-z
 
loop_
_atom_site_label
_atom_site_type_symbol
_atom_site_symmetry_multiplicity
_atom_site_Wyckoff_label
_atom_site_fract_x
_atom_site_fract_y
_atom_site_fract_z
_atom_site_occupancy
Fe1 Fe   2 i 0.22433 0.70593  0.67180  1.00000
Fe2 Fe   2 i 0.29638 0.27959  0.82270  1.00000
Fe3 Fe   2 i 0.17661 0.84774  -0.00515 1.00000
Fe4 Fe   2 i 0.08991 0.10735  0.61927  1.00000
Fe5 Fe   1 e 0.50000 0.50000  0.00000  1.00000
Fe6 Fe   1 c 0.00000 0.50000  0.00000  1.00000
Ta1 Ta   2 i 0.63752 -0.05206 0.73885  1.00000
Ta2 Ta   2 i 0.25532 0.49803  0.36968  1.00000
 
