# CIF file
# This file was generated by FINDSYM
# Harold T. Stokes, Branton J. Campbell, Dorian M. Hatch
# Brigham Young University, Provo, Utah, USA
 
data_findsym-output
_audit_creation_method FINDSYM
 
_symmetry_space_group_name_H-M "C 1 2/m 1"
_symmetry_Int_Tables_number 12
 
_cell_length_a    14.95257
_cell_length_b    3.04345
_cell_length_c    9.31674
_cell_angle_alpha 90.00000
_cell_angle_beta  119.64340
_cell_angle_gamma 90.00000
 
loop_
_space_group_symop_id
_space_group_symop_operation_xyz
1 x,y,z
2 -x,y,-z
3 -x,-y,-z
4 x,-y,z
5 x+1/2,y+1/2,z
6 -x+1/2,y+1/2,-z
7 -x+1/2,-y+1/2,-z
8 x+1/2,-y+1/2,z
 
loop_
_atom_site_label
_atom_site_type_symbol
_atom_site_symmetry_multiplicity
_atom_site_Wyckoff_label
_atom_site_fract_x
_atom_site_fract_y
_atom_site_fract_z
_atom_site_occupancy
Fe1 Fe   4 i -0.07027 0.00000 0.63674 1.00000
Fe2 Fe   4 i 0.70752  0.00000 0.56094 1.00000
Fe3 Fe   2 d 0.00000  0.50000 0.50000 1.00000
Fe4 Fe   4 i 0.21948  0.00000 0.07624 1.00000
Fe5 Fe   4 i 0.85709  0.00000 0.29995 1.00000
Fe6 Fe   2 a 0.00000  0.00000 0.00000 1.00000
Ta1 Ta   4 i 0.35244  0.00000 0.77649 1.00000
Ta2 Ta   4 i 0.57598  0.00000 0.85102 1.00000
 
