# CIF file
# This file was generated by FINDSYM
# Harold T. Stokes, Branton J. Campbell, Dorian M. Hatch
# Brigham Young University, Provo, Utah, USA
 
data_findsym-output
_audit_creation_method FINDSYM
 
_symmetry_space_group_name_H-M "P -1"
_symmetry_Int_Tables_number 2
 
_cell_length_a    4.84924
_cell_length_b    4.86489
_cell_length_c    6.42367
_cell_angle_alpha 70.19903
_cell_angle_beta  77.13631
_cell_angle_gamma 62.84478
 
loop_
_space_group_symop_id
_space_group_symop_operation_xyz
1 x,y,z
2 -x,-y,-z
 
loop_
_atom_site_label
_atom_site_type_symbol
_atom_site_symmetry_multiplicity
_atom_site_Wyckoff_label
_atom_site_fract_x
_atom_site_fract_y
_atom_site_fract_z
_atom_site_occupancy
Fe1 Fe   2 i 0.56116 0.24496 0.40405 1.00000
Fe2 Fe   2 i 0.34452 0.26453 0.78907 1.00000
Fe3 Fe   2 i 0.74337 0.24237 0.00225 1.00000
Fe4 Fe   2 i 0.05562 0.73776 0.39485 1.00000
Ta1 Ta   2 i 0.15902 0.23914 0.20284 1.00000
 
