# CIF file
# This file was generated by FINDSYM
# Harold T. Stokes, Branton J. Campbell, Dorian M. Hatch
# Brigham Young University, Provo, Utah, USA
 
data_findsym-output
_audit_creation_method FINDSYM
 
_symmetry_space_group_name_H-M "P -1"
_symmetry_Int_Tables_number 2
 
_cell_length_a    4.79403
_cell_length_b    4.81009
_cell_length_c    6.55575
_cell_angle_alpha 85.47683
_cell_angle_beta  70.32781
_cell_angle_gamma 60.84034
 
loop_
_space_group_symop_id
_space_group_symop_operation_xyz
1 x,y,z
2 -x,-y,-z
 
loop_
_atom_site_label
_atom_site_type_symbol
_atom_site_symmetry_multiplicity
_atom_site_Wyckoff_label
_atom_site_fract_x
_atom_site_fract_y
_atom_site_fract_z
_atom_site_occupancy
Fe1 Fe   2 i 0.84219 0.12539 0.17898 1.00000
Fe2 Fe   2 i 0.84554 0.61458 0.18780 1.00000
Fe3 Fe   2 i 0.33087 0.61206 0.18347 1.00000
Fe4 Fe   1 h 0.50000 0.50000 0.50000 1.00000
Fe5 Fe   1 d 0.50000 0.00000 0.00000 1.00000
Ta1 Ta   2 i 0.78525 0.84752 0.58653 1.00000
 
