# CIF file
# This file was generated by FINDSYM
# Harold T. Stokes, Branton J. Campbell, Dorian M. Hatch
# Brigham Young University, Provo, Utah, USA
 
data_findsym-output
_audit_creation_method FINDSYM
 
_symmetry_space_group_name_H-M "P -1"
_symmetry_Int_Tables_number 2
 
_cell_length_a    4.74591
_cell_length_b    4.77573
_cell_length_c    6.34770
_cell_angle_alpha 79.14653
_cell_angle_beta  69.67895
_cell_angle_gamma 62.87168
 
loop_
_space_group_symop_id
_space_group_symop_operation_xyz
1 x,y,z
2 -x,-y,-z
 
loop_
_atom_site_label
_atom_site_type_symbol
_atom_site_symmetry_multiplicity
_atom_site_Wyckoff_label
_atom_site_fract_x
_atom_site_fract_y
_atom_site_fract_z
_atom_site_occupancy
Fe1 Fe   2 i 0.01114 0.39202 0.19598 1.00000
Fe2 Fe   2 i 0.01123 0.19917 0.59703 1.00000
Fe3 Fe   1 e 0.50000 0.50000 0.00000 1.00000
Fe4 Fe   2 i 0.49917 0.31406 0.39137 1.00000
Fe5 Fe   1 a 0.00000 0.00000 0.00000 1.00000
Ge1 Ge   2 i 0.50308 0.88477 0.22232 1.00000
 
