# CIF file
# This file was generated by FINDSYM
# Harold T. Stokes, Branton J. Campbell, Dorian M. Hatch
# Brigham Young University, Provo, Utah, USA
 
data_findsym-output
_audit_creation_method FINDSYM
 
_symmetry_space_group_name_H-M "P -1"
_symmetry_Int_Tables_number 2
 
_cell_length_a    4.72507
_cell_length_b    4.74105
_cell_length_c    6.29212
_cell_angle_alpha 70.70171
_cell_angle_beta  77.38486
_cell_angle_gamma 63.93943
 
loop_
_space_group_symop_id
_space_group_symop_operation_xyz
1 x,y,z
2 -x,-y,-z
 
loop_
_atom_site_label
_atom_site_type_symbol
_atom_site_symmetry_multiplicity
_atom_site_Wyckoff_label
_atom_site_fract_x
_atom_site_fract_y
_atom_site_fract_z
_atom_site_occupancy
Fe1 Fe   2 i 0.24620  0.74734 0.00101 1.00000
Fe2 Fe   2 i 0.84614  0.75562 0.80074 1.00000
Fe3 Fe   2 i -0.06419 0.25683 0.59426 1.00000
Fe4 Fe   2 i 0.44387  0.76473 0.60456 1.00000
Ge1 Ge   2 i 0.34026  0.26373 0.78807 1.00000
 
