# CIF file
# This file was generated by FINDSYM
# Harold T. Stokes, Branton J. Campbell, Dorian M. Hatch
# Brigham Young University, Provo, Utah, USA
 
data_findsym-output
_audit_creation_method FINDSYM
 
_symmetry_space_group_name_H-M "C 1 m 1"
_symmetry_Int_Tables_number 8
 
_cell_length_a    11.56900
_cell_length_b    3.86793
_cell_length_c    4.81178
_cell_angle_alpha 90.00000
_cell_angle_beta  106.40875
_cell_angle_gamma 90.00000
 
loop_
_space_group_symop_id
_space_group_symop_operation_xyz
1 x,y,z
2 x,-y,z
3 x+1/2,y+1/2,z
4 x+1/2,-y+1/2,z
 
loop_
_atom_site_label
_atom_site_type_symbol
_atom_site_symmetry_multiplicity
_atom_site_Wyckoff_label
_atom_site_fract_x
_atom_site_fract_y
_atom_site_fract_z
_atom_site_occupancy
Fe1 Fe   2 a 0.80473  0.00000 0.88955 1.00000
Fe2 Fe   2 a 0.00593  0.00000 0.25188 1.00000
Fe3 Fe   2 a 0.59812  0.00000 0.60974 1.00000
Fe4 Fe   2 a 0.58724  0.00000 0.09130 1.00000
Fe5 Fe   2 a 0.80040  0.00000 0.38919 1.00000
Fe6 Fe   2 a 0.19648  0.00000 0.00935 1.00000
Si1 Si   2 a 0.21448  0.00000 0.52898 1.00000
Si2 Si   2 a -0.00907 0.00000 0.74082 1.00000
Si3 Si   2 a 0.39717  0.00000 0.25871 1.00000
 
