# CIF file
# This file was generated by FINDSYM
# Harold T. Stokes, Branton J. Campbell, Dorian M. Hatch
# Brigham Young University, Provo, Utah, USA
 
data_findsym-output
_audit_creation_method FINDSYM
 
_symmetry_space_group_name_H-M "P -1"
_symmetry_Int_Tables_number 2
 
_cell_length_a    4.22966
_cell_length_b    4.36086
_cell_length_c    4.64669
_cell_angle_alpha 99.65203
_cell_angle_beta  105.61127
_cell_angle_gamma 118.67154
 
loop_
_space_group_symop_id
_space_group_symop_operation_xyz
1 x,y,z
2 -x,-y,-z
 
loop_
_atom_site_label
_atom_site_type_symbol
_atom_site_symmetry_multiplicity
_atom_site_Wyckoff_label
_atom_site_fract_x
_atom_site_fract_y
_atom_site_fract_z
_atom_site_occupancy
Fe1 Fe   2 i 0.28842  0.23594 0.75336 1.00000
Fe2 Fe   2 i -0.04197 0.57054 0.75287 1.00000
Si1 Si   2 i 0.38039  0.10546 0.25375 1.00000
 
