# CIF file
# This file was generated by FINDSYM
# Harold T. Stokes, Branton J. Campbell, Dorian M. Hatch
# Brigham Young University, Provo, Utah, USA
 
data_findsym-output
_audit_creation_method FINDSYM
 
_symmetry_space_group_name_H-M "P 2/m 2/m 2/m"
_symmetry_Int_Tables_number 47
 
_cell_length_a    2.69873
_cell_length_b    3.85676
_cell_length_c    5.04470
_cell_angle_alpha 90.00000
_cell_angle_beta  90.00000
_cell_angle_gamma 90.00000
 
loop_
_space_group_symop_id
_space_group_symop_operation_xyz
1 x,y,z
2 x,-y,-z
3 -x,y,-z
4 -x,-y,z
5 -x,-y,-z
6 -x,y,z
7 x,-y,z
8 x,y,-z
 
loop_
_atom_site_label
_atom_site_type_symbol
_atom_site_symmetry_multiplicity
_atom_site_Wyckoff_label
_atom_site_fract_x
_atom_site_fract_y
_atom_site_fract_z
_atom_site_occupancy
Fe1 Fe   2 s 0.50000 0.00000 0.73926 1.00000
Fe2 Fe   1 e 0.00000 0.50000 0.00000 1.00000
Fe3 Fe   1 g 0.00000 0.50000 0.50000 1.00000
C1  C    1 a 0.00000 0.00000 0.00000 1.00000
 
