# CIF file
# This file was generated by FINDSYM
# Harold T. Stokes, Branton J. Campbell, Dorian M. Hatch
# Brigham Young University, Provo, Utah, USA
 
data_findsym-output
_audit_creation_method FINDSYM
 
_symmetry_space_group_name_H-M "P 1 2/m 1"
_symmetry_Int_Tables_number 10
 
_cell_length_a    4.97233
_cell_length_b    4.00285
_cell_length_c    7.42746
_cell_angle_alpha 90.00000
_cell_angle_beta  107.14450
_cell_angle_gamma 90.00000
 
loop_
_space_group_symop_id
_space_group_symop_operation_xyz
1 x,y,z
2 -x,y,-z
3 -x,-y,-z
4 x,-y,z
 
loop_
_atom_site_label
_atom_site_type_symbol
_atom_site_symmetry_multiplicity
_atom_site_Wyckoff_label
_atom_site_fract_x
_atom_site_fract_y
_atom_site_fract_z
_atom_site_occupancy
Fe1 Fe   2 n 0.26993  0.50000 0.16552 1.00000
Fe2 Fe   2 n 0.25060  0.50000 0.49178 1.00000
Fe3 Fe   2 m -0.01788 0.00000 0.66104 1.00000
Fe4 Fe   1 d 0.50000  0.00000 0.00000 1.00000
Fe5 Fe   1 a 0.00000  0.00000 0.00000 1.00000
Fe6 Fe   2 m 0.48899  0.00000 0.66537 1.00000
Ge1 Ge   2 n 0.22427  0.50000 0.82088 1.00000
 
