# CIF file
# This file was generated by FINDSYM
# Harold T. Stokes, Branton J. Campbell, Dorian M. Hatch
# Brigham Young University, Provo, Utah, USA
 
data_findsym-output
_audit_creation_method FINDSYM
 
_symmetry_space_group_name_H-M "P -1"
_symmetry_Int_Tables_number 2
 
_cell_length_a    4.72246
_cell_length_b    4.99733
_cell_length_c    6.46792
_cell_angle_alpha 106.08025
_cell_angle_beta  98.37158
_cell_angle_gamma 99.48897
 
loop_
_space_group_symop_id
_space_group_symop_operation_xyz
1 x,y,z
2 -x,-y,-z
 
loop_
_atom_site_label
_atom_site_type_symbol
_atom_site_symmetry_multiplicity
_atom_site_Wyckoff_label
_atom_site_fract_x
_atom_site_fract_y
_atom_site_fract_z
_atom_site_occupancy
Fe1 Fe   2 i 0.41168  0.86335 0.16948 1.00000
Fe2 Fe   2 i -0.09836 0.11488 0.16659 1.00000
Fe3 Fe   2 i 0.24184  0.63181 0.49754 1.00000
Fe4 Fe   2 i -0.08421 0.62181 0.16885 1.00000
Fe5 Fe   2 i 0.74943  0.87178 0.50168 1.00000
Ge1 Ge   2 i 0.40813  0.35992 0.17471 1.00000
 
