# CIF file
# This file was generated by FINDSYM
# Harold T. Stokes, Branton J. Campbell, Dorian M. Hatch
# Brigham Young University, Provo, Utah, USA
 
data_findsym-output
_audit_creation_method FINDSYM
 
_symmetry_space_group_name_H-M "P -1"
_symmetry_Int_Tables_number 2
 
_cell_length_a    4.73292
_cell_length_b    4.73329
_cell_length_c    6.46346
_cell_angle_alpha 96.78451
_cell_angle_beta  98.44804
_cell_angle_gamma 95.39073
 
loop_
_space_group_symop_id
_space_group_symop_operation_xyz
1 x,y,z
2 -x,-y,-z
 
loop_
_atom_site_label
_atom_site_type_symbol
_atom_site_symmetry_multiplicity
_atom_site_Wyckoff_label
_atom_site_fract_x
_atom_site_fract_y
_atom_site_fract_z
_atom_site_occupancy
Fe1 Fe   2 i 0.37370 0.86294 0.62121 1.00000
Fe2 Fe   2 i 0.28954 0.12005 0.04349 1.00000
Fe3 Fe   2 i 0.19830 0.37127 0.45483 1.00000
Fe4 Fe   2 i 0.12191 0.62636 0.87436 1.00000
Fe5 Fe   2 i 0.02947 0.87794 0.29198 1.00000
Ge1 Ge   2 i 0.45676 0.63515 0.21886 1.00000
 
