# CIF file
# This file was generated by FINDSYM
# Harold T. Stokes, Branton J. Campbell, Dorian M. Hatch
# Brigham Young University, Provo, Utah, USA
 
data_findsym-output
_audit_creation_method FINDSYM
 
_symmetry_space_group_name_H-M "P -1"
_symmetry_Int_Tables_number 2
 
_cell_length_a    4.72334
_cell_length_b    4.99011
_cell_length_c    6.26921
_cell_angle_alpha 83.95106
_cell_angle_beta  77.54823
_cell_angle_gamma 80.57801
 
loop_
_space_group_symop_id
_space_group_symop_operation_xyz
1 x,y,z
2 -x,-y,-z
 
loop_
_atom_site_label
_atom_site_type_symbol
_atom_site_symmetry_multiplicity
_atom_site_Wyckoff_label
_atom_site_fract_x
_atom_site_fract_y
_atom_site_fract_z
_atom_site_occupancy
Fe1 Fe   2 i 0.08548 0.53631 0.66821  1.00000
Fe2 Fe   2 i 0.75306 0.37999 0.00340  1.00000
Fe3 Fe   2 i 0.75528 0.88057 -0.00741 1.00000
Fe4 Fe   2 i 0.09770 0.03303 0.66558  1.00000
Fe5 Fe   2 i 0.41262 0.22182 0.33020  1.00000
Ge1 Ge   2 i 0.40866 0.72744 0.32463  1.00000
 
