# CIF file
# This file was generated by FINDSYM
# Harold T. Stokes, Branton J. Campbell, Dorian M. Hatch
# Brigham Young University, Provo, Utah, USA
 
data_findsym-output
_audit_creation_method FINDSYM
 
_symmetry_space_group_name_H-M "C 1 m 1"
_symmetry_Int_Tables_number 8
 
_cell_length_a    10.34385
_cell_length_b    8.47472
_cell_length_c    5.05786
_cell_angle_alpha 90.00000
_cell_angle_beta  113.88467
_cell_angle_gamma 90.00000
 
loop_
_space_group_symop_id
_space_group_symop_operation_xyz
1 x,y,z
2 x,-y,z
3 x+1/2,y+1/2,z
4 x+1/2,-y+1/2,z
 
loop_
_atom_site_label
_atom_site_type_symbol
_atom_site_symmetry_multiplicity
_atom_site_Wyckoff_label
_atom_site_fract_x
_atom_site_fract_y
_atom_site_fract_z
_atom_site_occupancy
Co1 Co   2 a 0.77636 0.00000 0.49055  1.00000
Co2 Co   4 b 0.60193 0.25692 0.78951  1.00000
Co3 Co   2 a 0.00001 0.00000 -0.00189 1.00000
Fe1 Fe   4 b 0.36901 0.24744 0.77913  1.00000
Fe2 Fe   2 a 0.00570 0.00000 0.49965  1.00000
Fe3 Fe   2 a 0.50120 0.00000 0.00523  1.00000
Fe4 Fe   4 b 0.87080 0.24630 0.28065  1.00000
Fe5 Fe   2 a 0.49843 0.00000 0.50809  1.00000
Fe6 Fe   2 a 0.25927 0.00000 0.51011  1.00000
Ta1 Ta   4 b 0.62252 0.24299 0.30330  1.00000
Ta2 Ta   2 a 0.74374 0.00000 -0.04025 1.00000
Ta3 Ta   2 a 0.25304 0.00000 0.00639  1.00000
 
