# CIF file
# This file was generated by FINDSYM
# Harold T. Stokes, Branton J. Campbell, Dorian M. Hatch
# Brigham Young University, Provo, Utah, USA
 
data_findsym-output
_audit_creation_method FINDSYM
 
_symmetry_space_group_name_H-M "P 1"
_symmetry_Int_Tables_number 1
 
_cell_length_a    4.73471
_cell_length_b    4.74604
_cell_length_c    8.98580
_cell_angle_alpha 86.99165
_cell_angle_beta  82.88401
_cell_angle_gamma 88.80216
 
loop_
_space_group_symop_id
_space_group_symop_operation_xyz
1 x,y,z
 
loop_
_atom_site_label
_atom_site_type_symbol
_atom_site_symmetry_multiplicity
_atom_site_Wyckoff_label
_atom_site_fract_x
_atom_site_fract_y
_atom_site_fract_z
_atom_site_occupancy
Co1 Co   1 a 0.12582  0.17592  0.56250  1.00000
Co2 Co   1 a 0.62284  0.45128  0.61307  1.00000
Co3 Co   1 a 0.79065  0.01899  0.76103  1.00000
Co4 Co   1 a 0.00018  -0.00062 -0.00024 1.00000
Fe1 Fe   1 a 0.49350  0.00497  -0.00042 1.00000
Fe2 Fe   1 a 0.69883  0.73599  0.18539  1.00000
Fe3 Fe   1 a 0.30511  0.78659  0.79154  1.00000
Fe4 Fe   1 a 0.27823  0.28515  0.80192  1.00000
Fe5 Fe   1 a 0.69744  0.23667  0.18763  1.00000
Fe6 Fe   1 a -0.08562 0.46726  0.37057  1.00000
Fe7 Fe   1 a 0.40495  0.47490  0.37636  1.00000
Fe8 Fe   1 a 0.09697  0.67556  0.58215  1.00000
Ta1 Ta   1 a 0.62252  -0.03954 0.49016  1.00000
Ta2 Ta   1 a 0.77915  0.51291  0.88480  1.00000
Ta3 Ta   1 a 0.17449  -0.02710 0.28584  1.00000
Ta4 Ta   1 a 0.22829  0.49465  0.08603  1.00000
 
