# CIF file
# This file was generated by FINDSYM
# Harold T. Stokes, Branton J. Campbell, Dorian M. Hatch
# Brigham Young University, Provo, Utah, USA
 
data_findsym-output
_audit_creation_method FINDSYM
 
_symmetry_space_group_name_H-M "P 1"
_symmetry_Int_Tables_number 1
 
_cell_length_a    4.73548
_cell_length_b    4.80165
_cell_length_c    8.91309
_cell_angle_alpha 89.71691
_cell_angle_beta  81.84432
_cell_angle_gamma 89.87999
 
loop_
_space_group_symop_id
_space_group_symop_operation_xyz
1 x,y,z
 
loop_
_atom_site_label
_atom_site_type_symbol
_atom_site_symmetry_multiplicity
_atom_site_Wyckoff_label
_atom_site_fract_x
_atom_site_fract_y
_atom_site_fract_z
_atom_site_occupancy
Co1 Co   1 a 0.00126  0.49904  0.00585  1.00000
Co2 Co   1 a 0.39963  0.50358  0.38424  1.00000
Co3 Co   1 a 0.59949  0.01336  0.62380  1.00000
Co4 Co   1 a 0.00045  -0.00069 0.00029  1.00000
Fe1 Fe   1 a 0.08198  0.75658  0.57247  1.00000
Fe2 Fe   1 a 0.21387  0.24377  0.18681  1.00000
Fe3 Fe   1 a 0.59608  0.51587  0.61192  1.00000
Fe4 Fe   1 a 0.40727  0.00552  0.39347  1.00000
Fe5 Fe   1 a 0.78744  0.74787  0.81957  1.00000
Fe6 Fe   1 a 0.70265  0.24551  0.19344  1.00000
Fe7 Fe   1 a 0.29849  0.74855  0.81307  1.00000
Fe8 Fe   1 a -0.08136 0.25321  0.43395  1.00000
Ta1 Ta   1 a 0.46944  0.74878  0.10030  1.00000
Ta2 Ta   1 a 0.53238  0.25109  -0.09407 1.00000
Ta3 Ta   1 a 0.09314  0.25509  0.70140  1.00000
Ta4 Ta   1 a -0.09068 0.75051  0.30431  1.00000
 
