# CIF file
# This file was generated by FINDSYM
# Harold T. Stokes, Branton J. Campbell, Dorian M. Hatch
# Brigham Young University, Provo, Utah, USA
 
data_findsym-output
_audit_creation_method FINDSYM
 
_symmetry_space_group_name_H-M "P -1"
_symmetry_Int_Tables_number 2
 
_cell_length_a    5.12296
_cell_length_b    5.12712
_cell_length_c    8.49566
_cell_angle_alpha 86.09041
_cell_angle_beta  86.07405
_cell_angle_gamma 64.64553
 
loop_
_space_group_symop_id
_space_group_symop_operation_xyz
1 x,y,z
2 -x,-y,-z
 
loop_
_atom_site_label
_atom_site_type_symbol
_atom_site_symmetry_multiplicity
_atom_site_Wyckoff_label
_atom_site_fract_x
_atom_site_fract_y
_atom_site_fract_z
_atom_site_occupancy
Co1 Co   1 c 0.00000 0.50000 0.00000 1.00000
Co2 Co   1 g 0.00000 0.50000 0.50000 1.00000
Co3 Co   1 d 0.50000 0.00000 0.00000 1.00000
Co4 Co   1 a 0.00000 0.00000 0.00000 1.00000
Fe1 Fe   2 i 0.29491 0.81004 0.25082 1.00000
Fe2 Fe   2 i 0.70797 0.71020 0.74588 1.00000
Fe3 Fe   2 i 0.18947 0.70629 0.74818 1.00000
Fe4 Fe   1 f 0.50000 0.00000 0.50000 1.00000
Fe5 Fe   1 b 0.00000 0.00000 0.50000 1.00000
Ta1 Ta   1 e 0.50000 0.50000 0.00000 1.00000
Ta2 Ta   1 h 0.50000 0.50000 0.50000 1.00000
Ta3 Ta   2 i 0.19990 0.20064 0.75855 1.00000
 
