# CIF file
# This file was generated by FINDSYM
# Harold T. Stokes, Branton J. Campbell, Dorian M. Hatch
# Brigham Young University, Provo, Utah, USA
 
data_findsym-output
_audit_creation_method FINDSYM
 
_symmetry_space_group_name_H-M "C 1 m 1"
_symmetry_Int_Tables_number 8
 
_cell_length_a    8.80215
_cell_length_b    5.33365
_cell_length_c    8.54911
_cell_angle_alpha 90.00000
_cell_angle_beta  91.64376
_cell_angle_gamma 90.00000
 
loop_
_space_group_symop_id
_space_group_symop_operation_xyz
1 x,y,z
2 x,-y,z
3 x+1/2,y+1/2,z
4 x+1/2,-y+1/2,z
 
loop_
_atom_site_label
_atom_site_type_symbol
_atom_site_symmetry_multiplicity
_atom_site_Wyckoff_label
_atom_site_fract_x
_atom_site_fract_y
_atom_site_fract_z
_atom_site_occupancy
Co1 Co   2 a 0.00095  0.00000 -0.00097 1.00000
Co2 Co   2 a 0.37653  0.00000 0.50294  1.00000
Co3 Co   4 b 0.76135  0.23686 -0.00039 1.00000
Fe1 Fe   2 a 0.67756  0.00000 0.74795  1.00000
Fe2 Fe   4 b -0.06139 0.25374 0.24882  1.00000
Fe3 Fe   4 b 0.42179  0.24968 0.74764  1.00000
Fe4 Fe   4 b 0.12539  0.26101 0.50036  1.00000
Fe5 Fe   2 a 0.69039  0.00000 0.24663  1.00000
Ta1 Ta   2 a 0.50529  0.00000 -0.00186 1.00000
Ta2 Ta   2 a 0.88244  0.00000 0.49622  1.00000
Ta3 Ta   2 a 0.18785  0.00000 0.23868  1.00000
Ta4 Ta   2 a 0.17268  0.00000 0.76265  1.00000
 
