# CIF file
# This file was generated by FINDSYM
# Harold T. Stokes, Branton J. Campbell, Dorian M. Hatch
# Brigham Young University, Provo, Utah, USA
 
data_findsym-output
_audit_creation_method FINDSYM
 
_symmetry_space_group_name_H-M "C 1 m 1"
_symmetry_Int_Tables_number 8
 
_cell_length_a    6.56401
_cell_length_b    7.74420
_cell_length_c    7.91410
_cell_angle_alpha 90.00000
_cell_angle_beta  90.11125
_cell_angle_gamma 90.00000
 
loop_
_space_group_symop_id
_space_group_symop_operation_xyz
1 x,y,z
2 x,-y,z
3 x+1/2,y+1/2,z
4 x+1/2,-y+1/2,z
 
loop_
_atom_site_label
_atom_site_type_symbol
_atom_site_symmetry_multiplicity
_atom_site_Wyckoff_label
_atom_site_fract_x
_atom_site_fract_y
_atom_site_fract_z
_atom_site_occupancy
Co1 Co   2 a 0.71888  0.00000 0.75259 1.00000
Co2 Co   2 a 0.00024  0.00000 0.50249 1.00000
Co3 Co   2 a 0.43934  0.00000 0.50247 1.00000
Co4 Co   2 a -0.00049 0.00000 0.00061 1.00000
Fe1 Fe   4 b -0.03050 0.24829 0.25329 1.00000
Fe2 Fe   2 a 0.22079  0.00000 0.25193 1.00000
Fe3 Fe   2 a 0.71611  0.00000 0.25107 1.00000
Fe4 Fe   4 b -0.03000 0.24814 0.75108 1.00000
Fe5 Fe   2 a 0.22289  0.00000 0.75233 1.00000
Fe6 Fe   2 a 0.44219  0.00000 0.00192 1.00000
Ta1 Ta   4 b 0.71977  0.22621 0.00015 1.00000
Ta2 Ta   4 b 0.21953  0.27626 0.50426 1.00000
 
