# CIF file
# This file was generated by FINDSYM
# Harold T. Stokes, Branton J. Campbell, Dorian M. Hatch
# Brigham Young University, Provo, Utah, USA
 
data_findsym-output
_audit_creation_method FINDSYM
 
_symmetry_space_group_name_H-M "C 1 m 1"
_symmetry_Int_Tables_number 8
 
_cell_length_a    7.27720
_cell_length_b    7.26951
_cell_length_c    7.55958
_cell_angle_alpha 90.00000
_cell_angle_beta  90.02841
_cell_angle_gamma 90.00000
 
loop_
_space_group_symop_id
_space_group_symop_operation_xyz
1 x,y,z
2 x,-y,z
3 x+1/2,y+1/2,z
4 x+1/2,-y+1/2,z
 
loop_
_atom_site_label
_atom_site_type_symbol
_atom_site_symmetry_multiplicity
_atom_site_Wyckoff_label
_atom_site_fract_x
_atom_site_fract_y
_atom_site_fract_z
_atom_site_occupancy
Co1 Co   2 a 0.24994  0.00000 0.24878  1.00000
Co2 Co   2 a 0.74709  0.00000 0.75536  1.00000
Co3 Co   2 a 0.25056  0.00000 0.75258  1.00000
Co4 Co   2 a 0.00006  0.00000 0.00036  1.00000
Fe1 Fe   2 a 0.49859  0.00000 -0.00062 1.00000
Fe2 Fe   2 a 0.49924  0.00000 0.50212  1.00000
Fe3 Fe   4 b 0.24912  0.24850 -0.00025 1.00000
Fe4 Fe   4 b 0.24929  0.24979 0.50181  1.00000
Fe5 Fe   2 a -0.00084 0.00000 0.50100  1.00000
Fe6 Fe   2 a 0.74826  0.00000 0.24708  1.00000
Ta1 Ta   4 b -0.00048 0.24837 0.24403  1.00000
Ta2 Ta   4 b -0.00120 0.24683 0.75791  1.00000
 
