# CIF file
# This file was generated by FINDSYM
# Harold T. Stokes, Branton J. Campbell, Dorian M. Hatch
# Brigham Young University, Provo, Utah, USA
 
data_findsym-output
_audit_creation_method FINDSYM
 
_symmetry_space_group_name_H-M "P 3 m 1"
_symmetry_Int_Tables_number 156
 
_cell_length_a    5.38899
_cell_length_b    5.38899
_cell_length_c    8.55021
_cell_angle_alpha 90.00000
_cell_angle_beta  90.00000
_cell_angle_gamma 120.00000
 
loop_
_space_group_symop_id
_space_group_symop_operation_xyz
1 x,y,z
2 -y,x-y,z
3 -x+y,-x,z
4 -x+y,y,z
5 -y,-x,z
6 x,x-y,z
 
loop_
_atom_site_label
_atom_site_type_symbol
_atom_site_symmetry_multiplicity
_atom_site_Wyckoff_label
_atom_site_fract_x
_atom_site_fract_y
_atom_site_fract_z
_atom_site_occupancy
Fe1 Fe   3 d 0.84637 0.15363 0.12482 1.00000
Fe2 Fe   3 d 0.85071 0.14929 0.62503 1.00000
Fe3 Fe   3 d 0.15891 0.84109 0.36514 1.00000
Fe4 Fe   3 d 0.15878 0.84122 0.88493 1.00000
Sn1 Sn   1 b 0.33333 0.66667 0.62535 1.00000
Sn2 Sn   1 c 0.66667 0.33333 0.87126 1.00000
Sn3 Sn   1 c 0.66667 0.33333 0.37859 1.00000
P1  P    1 b 0.33333 0.66667 0.12509 1.00000
 
