# CIF file
# This file was generated by FINDSYM
# Harold T. Stokes, Branton J. Campbell, Dorian M. Hatch
# Brigham Young University, Provo, Utah, USA
 
data_findsym-output
_audit_creation_method FINDSYM
 
_symmetry_space_group_name_H-M "P 3 m 1"
_symmetry_Int_Tables_number 156
 
_cell_length_a    5.37955
_cell_length_b    5.37955
_cell_length_c    8.58024
_cell_angle_alpha 90.00000
_cell_angle_beta  90.00000
_cell_angle_gamma 120.00000
 
loop_
_space_group_symop_id
_space_group_symop_operation_xyz
1 x,y,z
2 -y,x-y,z
3 -x+y,-x,z
4 -x+y,y,z
5 -y,-x,z
6 x,x-y,z
 
loop_
_atom_site_label
_atom_site_type_symbol
_atom_site_symmetry_multiplicity
_atom_site_Wyckoff_label
_atom_site_fract_x
_atom_site_fract_y
_atom_site_fract_z
_atom_site_occupancy
Fe1 Fe   3 d 0.84784 0.15216 0.12492 1.00000
Fe2 Fe   3 d 0.84872 0.15128 0.62498 1.00000
Fe3 Fe   3 d 0.15472 0.84528 0.36961 1.00000
Fe4 Fe   3 d 0.15488 0.84512 0.88042 1.00000
Sn1 Sn   1 b 0.33333 0.66667 0.62493 1.00000
Sn2 Sn   1 c 0.66667 0.33333 0.87522 1.00000
Sn3 Sn   1 c 0.66667 0.33333 0.37453 1.00000
Ga1 Ga   1 b 0.33333 0.66667 0.12552 1.00000
 
