# CIF file
# This file was generated by FINDSYM
# Harold T. Stokes, Branton J. Campbell, Dorian M. Hatch
# Brigham Young University, Provo, Utah, USA
 
data_findsym-output
_audit_creation_method FINDSYM
 
_symmetry_space_group_name_H-M "P 1"
_symmetry_Int_Tables_number 1
 
_cell_length_a    5.45176
_cell_length_b    5.45883
_cell_length_c    8.58721
_cell_angle_alpha 89.95661
_cell_angle_beta  89.91192
_cell_angle_gamma 60.15227
 
loop_
_space_group_symop_id
_space_group_symop_operation_xyz
1 x,y,z
 
loop_
_atom_site_label
_atom_site_type_symbol
_atom_site_symmetry_multiplicity
_atom_site_Wyckoff_label
_atom_site_fract_x
_atom_site_fract_y
_atom_site_fract_z
_atom_site_occupancy
Fe1 Fe   1 a 0.15142 0.69814 0.87512 1.00000
Fe2 Fe   1 a 0.15071 0.69983 0.37490 1.00000
Fe3 Fe   1 a 0.69957 0.15161 0.37344 1.00000
Fe4 Fe   1 a 0.30268 0.85025 0.62522 1.00000
Fe5 Fe   1 a 0.84823 0.84942 0.12501 1.00000
Fe6 Fe   1 a 0.69789 0.15213 0.87651 1.00000
Mn1 Mn   1 a 0.85067 0.30198 0.62543 1.00000
Mn2 Mn   1 a 0.84913 0.30174 0.12458 1.00000
Mn3 Mn   1 a 0.30470 0.84756 0.12438 1.00000
Mn4 Mn   1 a 0.14948 0.15116 0.87400 1.00000
Mn5 Mn   1 a 0.14899 0.15107 0.37596 1.00000
Mn6 Mn   1 a 0.84741 0.84708 0.62546 1.00000
Sn1 Sn   1 a 0.66550 0.66623 0.37502 1.00000
Sn2 Sn   1 a 0.33224 0.33313 0.12632 1.00000
Sn3 Sn   1 a 0.33556 0.33328 0.62363 1.00000
Sb1 Sb   1 a 0.66581 0.66537 0.87501 1.00000
 
