# CIF file
# This file was generated by FINDSYM
# Harold T. Stokes, Branton J. Campbell, Dorian M. Hatch
# Brigham Young University, Provo, Utah, USA
 
data_findsym-output
_audit_creation_method FINDSYM
 
_symmetry_space_group_name_H-M "P 1"
_symmetry_Int_Tables_number 1
 
_cell_length_a    5.45551
_cell_length_b    5.46131
_cell_length_c    8.64626
_cell_angle_alpha 90.02482
_cell_angle_beta  90.05205
_cell_angle_gamma 119.89425
 
loop_
_space_group_symop_id
_space_group_symop_operation_xyz
1 x,y,z
 
loop_
_atom_site_label
_atom_site_type_symbol
_atom_site_symmetry_multiplicity
_atom_site_Wyckoff_label
_atom_site_fract_x
_atom_site_fract_y
_atom_site_fract_z
_atom_site_occupancy
Fe1 Fe   1 a 0.84918 0.69625 0.12411 1.00000
Fe2 Fe   1 a 0.15110 0.30233 0.37511 1.00000
Fe3 Fe   1 a 0.14942 0.30100 0.87475 1.00000
Fe4 Fe   1 a 0.69952 0.84995 0.87445 1.00000
Fe5 Fe   1 a 0.84799 0.15118 0.62606 1.00000
Fe6 Fe   1 a 0.15182 0.84852 0.37236 1.00000
Fe7 Fe   1 a 0.14983 0.84832 0.87772 1.00000
Fe8 Fe   1 a 0.30392 0.15068 0.12535 1.00000
Mn1 Mn   1 a 0.84638 0.69601 0.62579 1.00000
Mn2 Mn   1 a 0.30627 0.15441 0.62439 1.00000
Mn3 Mn   1 a 0.69521 0.84777 0.37538 1.00000
Mn4 Mn   1 a 0.84724 0.15293 0.12391 1.00000
Sn1 Sn   1 a 0.33156 0.66755 0.62488 1.00000
Sn2 Sn   1 a 0.66615 0.33339 0.87350 1.00000
Sn3 Sn   1 a 0.66898 0.33452 0.37650 1.00000
Sb1 Sb   1 a 0.33541 0.66521 0.12575 1.00000
 
