# CIF file
# This file was generated by FINDSYM
# Harold T. Stokes, Branton J. Campbell, Dorian M. Hatch
# Brigham Young University, Provo, Utah, USA
 
data_findsym-output
_audit_creation_method FINDSYM
 
_symmetry_space_group_name_H-M "I m m 2"
_symmetry_Int_Tables_number 44
 
_cell_length_a    4.66657
_cell_length_b    8.45460
_cell_length_c    8.49389
_cell_angle_alpha 90.00000
_cell_angle_beta  90.00000
_cell_angle_gamma 90.00000
 
loop_
_space_group_symop_id
_space_group_symop_operation_xyz
1 x,y,z
2 -x,-y,z
3 -x,y,z
4 x,-y,z
5 x+1/2,y+1/2,z+1/2
6 -x+1/2,-y+1/2,z+1/2
7 -x+1/2,y+1/2,z+1/2
8 x+1/2,-y+1/2,z+1/2
 
loop_
_atom_site_label
_atom_site_type_symbol
_atom_site_symmetry_multiplicity
_atom_site_Wyckoff_label
_atom_site_fract_x
_atom_site_fract_y
_atom_site_fract_z
_atom_site_occupancy
Sm1 Sm   2 a 0.00000 0.00000 -0.00486 1.00000
Fe1 Fe   8 e 0.25014 0.24891 0.24892  1.00000
Fe2 Fe   4 d 0.00000 0.35972 0.00058  1.00000
Fe3 Fe   2 a 0.00000 0.00000 0.63670  1.00000
Fe4 Fe   4 d 0.00000 0.27303 0.50025  1.00000
Fe5 Fe   2 b 0.00000 0.50000 0.73260  1.00000
Fe6 Fe   2 b 0.00000 0.50000 0.26692  1.00000
V1  V    2 a 0.00000 0.00000 0.37128  1.00000
 
