# CIF file
# This file was generated by FINDSYM
# Harold T. Stokes, Branton J. Campbell, Dorian M. Hatch
# Brigham Young University, Provo, Utah, USA
 
data_findsym-output
_audit_creation_method FINDSYM
 
_symmetry_space_group_name_H-M "P 1"
_symmetry_Int_Tables_number 1
 
_cell_length_a    5.08161
_cell_length_b    6.62499
_cell_length_c    7.62636
_cell_angle_alpha 95.08264
_cell_angle_beta  109.02522
_cell_angle_gamma 105.51104
 
loop_
_space_group_symop_id
_space_group_symop_operation_xyz
1 x,y,z
 
loop_
_atom_site_label
_atom_site_type_symbol
_atom_site_symmetry_multiplicity
_atom_site_Wyckoff_label
_atom_site_fract_x
_atom_site_fract_y
_atom_site_fract_z
_atom_site_occupancy
Fe1  Fe   1 a 0.25085  0.66562  0.09927  1.00000
Fe2  Fe   1 a 0.36344  0.32493  0.54416  1.00000
Fe3  Fe   1 a -0.08825 0.66657  0.76777  1.00000
Fe4  Fe   1 a 0.09448  0.67191  0.43084  1.00000
Fe5  Fe   1 a 0.04819  0.34084  0.22412  1.00000
Fe6  Fe   1 a 0.86954  0.33278  0.54499  1.00000
Fe7  Fe   1 a 0.20113  0.33142  0.88113  1.00000
Fe8  Fe   1 a 0.54424  0.32651  0.21592  1.00000
Fe9  Fe   1 a 0.75622  0.66657  0.11140  1.00000
Fe10 Fe   1 a 0.15172  0.00297  0.65848  1.00000
Fe11 Fe   1 a 0.83179  0.01135  0.33002  1.00000
Fe12 Fe   1 a 0.65576  0.00541  0.65756  1.00000
Fe13 Fe   1 a 0.49741  -0.00067 0.00440  1.00000
Fe14 Fe   1 a 0.33171  0.00166  0.33521  1.00000
Ta1  Ta   1 a 0.70191  0.33322  0.88291  1.00000
Ta2  Ta   1 a 0.40432  0.66810  0.76898  1.00000
Ta3  Ta   1 a 0.59730  0.66786  0.43223  1.00000
Ta4  Ta   1 a -0.00021 -0.00017 -0.00020 1.00000
 
