# CIF file
# This file was generated by FINDSYM
# Harold T. Stokes, Branton J. Campbell, Dorian M. Hatch
# Brigham Young University, Provo, Utah, USA
 
data_findsym-output
_audit_creation_method FINDSYM
 
_symmetry_space_group_name_H-M "P 1"
_symmetry_Int_Tables_number 1
 
_cell_length_a    5.08892
_cell_length_b    6.61865
_cell_length_c    7.16851
_cell_angle_alpha 78.91726
_cell_angle_beta  89.32146
_cell_angle_gamma 74.37950
 
loop_
_space_group_symop_id
_space_group_symop_operation_xyz
1 x,y,z
 
loop_
_atom_site_label
_atom_site_type_symbol
_atom_site_symmetry_multiplicity
_atom_site_Wyckoff_label
_atom_site_fract_x
_atom_site_fract_y
_atom_site_fract_z
_atom_site_occupancy
Fe1  Fe   1 a 0.61917  0.66443  0.54740 1.00000
Fe2  Fe   1 a 0.05553  0.33721  0.77350 1.00000
Fe3  Fe   1 a 0.18852  -0.00041 0.32581 1.00000
Fe4  Fe   1 a 0.22120  0.33550  0.10008 1.00000
Fe5  Fe   1 a 0.44721  0.66701  0.21153 1.00000
Fe6  Fe   1 a 0.38706  0.33343  0.42480 1.00000
Fe7  Fe   1 a 0.78249  0.66407  0.88384 1.00000
Fe8  Fe   1 a 0.28745  0.65888  0.88712 1.00000
Fe9  Fe   1 a 0.85194  -0.00102 0.66239 1.00000
Fe10 Fe   1 a 0.67390  -0.00102 0.32422 1.00000
Fe11 Fe   1 a 0.50331  0.00170  0.00215 1.00000
Fe12 Fe   1 a 0.70958  0.34181  0.09428 1.00000
Fe13 Fe   1 a 0.55754  0.33521  0.77058 1.00000
Fe14 Fe   1 a -0.05849 0.66283  0.20946 1.00000
Ta1  Ta   1 a 0.11843  0.66635  0.54579 1.00000
Ta2  Ta   1 a 0.36201  0.00035  0.66361 1.00000
Ta3  Ta   1 a 0.88138  0.33012  0.42937 1.00000
Ta4  Ta   1 a -0.00011 0.00022  0.00054 1.00000
 
