# CIF file
# This file was generated by FINDSYM
# Harold T. Stokes, Branton J. Campbell, Dorian M. Hatch
# Brigham Young University, Provo, Utah, USA
 
data_findsym-output
_audit_creation_method FINDSYM
 
_symmetry_space_group_name_H-M "P -1"
_symmetry_Int_Tables_number 2
 
_cell_length_a    5.08048
_cell_length_b    6.43180
_cell_length_c    7.65142
_cell_angle_alpha 98.34401
_cell_angle_beta  109.37753
_cell_angle_gamma 96.45883
 
loop_
_space_group_symop_id
_space_group_symop_operation_xyz
1 x,y,z
2 -x,-y,-z
 
loop_
_atom_site_label
_atom_site_type_symbol
_atom_site_symmetry_multiplicity
_atom_site_Wyckoff_label
_atom_site_fract_x
_atom_site_fract_y
_atom_site_fract_z
_atom_site_occupancy
Fe1 Fe   2 i 0.26551 0.50970 0.17209  1.00000
Fe2 Fe   2 i 0.08776 0.84206 0.71861  1.00000
Fe3 Fe   2 i 0.24520 0.49728 0.49320  1.00000
Fe4 Fe   2 i 0.07408 0.82864 0.05030  1.00000
Fe5 Fe   2 i 0.09551 0.84000 0.39350  1.00000
Fe6 Fe   2 i 0.59413 0.82738 0.38603  1.00000
Fe7 Fe   2 i 0.41655 0.16088 -0.05804 1.00000
Ta1 Ta   2 i 0.23217 0.49782 0.83012  1.00000
Ta2 Ta   2 i 0.40995 0.16257 0.27926  1.00000
 
