# CIF file
# This file was generated by FINDSYM
# Harold T. Stokes, Branton J. Campbell, Dorian M. Hatch
# Brigham Young University, Provo, Utah, USA
 
data_findsym-output
_audit_creation_method FINDSYM
 
_symmetry_space_group_name_H-M "P 1"
_symmetry_Int_Tables_number 1
 
_cell_length_a    5.93223
_cell_length_b    6.40650
_cell_length_c    7.17741
_cell_angle_alpha 68.14296
_cell_angle_beta  65.63595
_cell_angle_gamma 76.66860
 
loop_
_space_group_symop_id
_space_group_symop_operation_xyz
1 x,y,z
 
loop_
_atom_site_label
_atom_site_type_symbol
_atom_site_symmetry_multiplicity
_atom_site_Wyckoff_label
_atom_site_fract_x
_atom_site_fract_y
_atom_site_fract_z
_atom_site_occupancy
Fe1  Fe   1 a 0.22130  0.77494  0.67191  1.00000
Fe2  Fe   1 a 0.84029  0.65444  0.00475  1.00000
Fe3  Fe   1 a 0.60426  0.88650  0.33809  1.00000
Fe4  Fe   1 a 0.65562  0.33028  0.00740  1.00000
Fe5  Fe   1 a 0.38999  0.11381  0.66445  1.00000
Fe6  Fe   1 a 0.49973  -0.00110 0.00280  1.00000
Fe7  Fe   1 a 0.05477  0.43750  0.68659  1.00000
Fe8  Fe   1 a 0.54567  0.43413  0.68433  1.00000
Fe9  Fe   1 a 0.17154  0.33024  0.00858  1.00000
Fe10 Fe   1 a 0.11534  0.88813  0.33763  1.00000
Fe11 Fe   1 a 0.28212  0.20287  0.34103  1.00000
Fe12 Fe   1 a 0.77816  0.20329  0.33683  1.00000
Fe13 Fe   1 a 0.32895  0.65965  0.00366  1.00000
Fe14 Fe   1 a 0.88917  0.11614  0.66529  1.00000
Ta1  Ta   1 a 0.71801  0.77676  0.67876  1.00000
Ta2  Ta   1 a 0.44331  0.54940  0.33889  1.00000
Ta3  Ta   1 a -0.05578 0.53677  0.34430  1.00000
Ta4  Ta   1 a 0.00023  -0.00015 -0.00022 1.00000
 
