# CIF file
# This file was generated by FINDSYM
# Harold T. Stokes, Branton J. Campbell, Dorian M. Hatch
# Brigham Young University, Provo, Utah, USA
 
data_findsym-output
_audit_creation_method FINDSYM
 
_symmetry_space_group_name_H-M "P 1 m 1"
_symmetry_Int_Tables_number 6
 
_cell_length_a    7.16463
_cell_length_b    4.16222
_cell_length_c    7.70212
_cell_angle_alpha 90.00000
_cell_angle_beta  90.66783
_cell_angle_gamma 90.00000
 
loop_
_space_group_symop_id
_space_group_symop_operation_xyz
1 x,y,z
2 x,-y,z
 
loop_
_atom_site_label
_atom_site_type_symbol
_atom_site_symmetry_multiplicity
_atom_site_Wyckoff_label
_atom_site_fract_x
_atom_site_fract_y
_atom_site_fract_z
_atom_site_occupancy
Fe1  Fe   1 b 0.16081  0.50000 0.12086 1.00000
Fe2  Fe   1 b 0.83971  0.50000 0.55686 1.00000
Fe3  Fe   1 b 0.16027  0.50000 0.44427 1.00000
Fe4  Fe   1 b 0.83538  0.50000 0.22422 1.00000
Fe5  Fe   1 a 0.31999  0.00000 0.54938 1.00000
Fe6  Fe   1 a 0.66714  0.00000 0.10836 1.00000
Fe7  Fe   1 a 0.32789  0.00000 0.22439 1.00000
Fe8  Fe   1 a -0.00203 0.00000 0.65969 1.00000
Fe9  Fe   1 b 0.15417  0.50000 0.77909 1.00000
Fe10 Fe   1 b 0.82842  0.50000 0.88201 1.00000
Fe11 Fe   1 a 0.33034  0.00000 0.87897 1.00000
Fe12 Fe   1 a 0.66842  0.00000 0.78096 1.00000
Fe13 Fe   1 b 0.48970  0.50000 0.33375 1.00000
Fe14 Fe   1 a 0.00791  0.00000 0.33458 1.00000
Ta1  Ta   1 b 0.49424  0.50000 0.01410 1.00000
Ta2  Ta   1 b 0.49033  0.50000 0.65833 1.00000
Ta3  Ta   1 a 0.67179  0.00000 0.43334 1.00000
Ta4  Ta   1 a -0.00028 0.00000 0.00005 1.00000
 
