# CIF file
# This file was generated by FINDSYM
# Harold T. Stokes, Branton J. Campbell, Dorian M. Hatch
# Brigham Young University, Provo, Utah, USA
 
data_findsym-output
_audit_creation_method FINDSYM
 
_symmetry_space_group_name_H-M "P -1"
_symmetry_Int_Tables_number 2
 
_cell_length_a    5.08008
_cell_length_b    6.61000
_cell_length_c    7.67355
_cell_angle_alpha 74.21549
_cell_angle_beta  70.86383
_cell_angle_gamma 74.03732
 
loop_
_space_group_symop_id
_space_group_symop_operation_xyz
1 x,y,z
2 -x,-y,-z
 
loop_
_atom_site_label
_atom_site_type_symbol
_atom_site_symmetry_multiplicity
_atom_site_Wyckoff_label
_atom_site_fract_x
_atom_site_fract_y
_atom_site_fract_z
_atom_site_occupancy
Fe1 Fe   2 i 0.08140  0.15513 0.72391  1.00000
Fe2 Fe   2 i 0.24889  0.49332 0.50692  1.00000
Fe3 Fe   2 i -0.08565 0.83267 -0.05532 1.00000
Fe4 Fe   2 i 0.74024  0.49196 0.17095  1.00000
Fe5 Fe   2 i 0.59734  0.16659 0.05316  1.00000
Fe6 Fe   2 i 0.57786  0.16639 0.38454  1.00000
Fe7 Fe   2 i 0.06622  0.16663 0.39654  1.00000
Ta1 Ta   2 i 0.57778  0.16164 0.72314  1.00000
Ta2 Ta   2 i 0.23446  0.49509 0.17071  1.00000
 
