# CIF file
# This file was generated by FINDSYM
# Harold T. Stokes, Branton J. Campbell, Dorian M. Hatch
# Brigham Young University, Provo, Utah, USA
 
data_findsym-output
_audit_creation_method FINDSYM
 
_symmetry_space_group_name_H-M "C 1 m 1"
_symmetry_Int_Tables_number 8
 
_cell_length_a    9.70796
_cell_length_b    2.79648
_cell_length_c    4.20720
_cell_angle_alpha 90.00000
_cell_angle_beta  100.23643
_cell_angle_gamma 90.00000
 
loop_
_space_group_symop_id
_space_group_symop_operation_xyz
1 x,y,z
2 x,-y,z
3 x+1/2,y+1/2,z
4 x+1/2,-y+1/2,z
 
loop_
_atom_site_label
_atom_site_type_symbol
_atom_site_symmetry_multiplicity
_atom_site_Wyckoff_label
_atom_site_fract_x
_atom_site_fract_y
_atom_site_fract_z
_atom_site_occupancy
Fe1 Fe   2 a 0.17793  0.00000 0.31602 1.00000
Fe2 Fe   2 a -0.07761 0.00000 0.40810 1.00000
Fe3 Fe   2 a 0.59668  0.00000 0.80653 1.00000
Fe4 Fe   2 a 0.34301  0.00000 0.88391 1.00000
C1  C    2 a 0.75267  0.00000 0.59401 1.00000
C2  C    2 a 0.00019  0.00000 0.00001 1.00000
 
