# CIF file
# This file was generated by FINDSYM
# Harold T. Stokes, Branton J. Campbell, Dorian M. Hatch
# Brigham Young University, Provo, Utah, USA
 
data_findsym-output
_audit_creation_method FINDSYM
 
_symmetry_space_group_name_H-M "C 1 2 1"
_symmetry_Int_Tables_number 5
 
_cell_length_a    7.09051
_cell_length_b    7.00067
_cell_length_c    7.21541
_cell_angle_alpha 90.00000
_cell_angle_beta  103.88895
_cell_angle_gamma 90.00000
 
loop_
_space_group_symop_id
_space_group_symop_operation_xyz
1 x,y,z
2 -x,y,-z
3 x+1/2,y+1/2,z
4 -x+1/2,y+1/2,-z
 
loop_
_atom_site_label
_atom_site_type_symbol
_atom_site_symmetry_multiplicity
_atom_site_Wyckoff_label
_atom_site_fract_x
_atom_site_fract_y
_atom_site_fract_z
_atom_site_occupancy
Fe1 Fe   4 c 0.65421 0.37385 0.11218 1.00000
Fe2 Fe   4 c 0.59873 0.12093 0.87960 1.00000
Fe3 Fe   4 c 0.78697 0.11167 0.65297 1.00000
Fe4 Fe   4 c 0.60511 0.27429 0.40026 1.00000
Sc1 Sc   4 c 0.18832 0.00355 0.73651 1.00000
Sc2 Sc   2 a 0.00000 0.25269 0.00000 1.00000
Sc3 Sc   2 b 0.00000 0.38286 0.50000 1.00000
 
