# CIF file
# This file was generated by FINDSYM
# Harold T. Stokes, Branton J. Campbell, Dorian M. Hatch
# Brigham Young University, Provo, Utah, USA
 
data_findsym-output
_audit_creation_method FINDSYM
 
_symmetry_space_group_name_H-M "C 1 m 1"
_symmetry_Int_Tables_number 8
 
_cell_length_a    8.79875
_cell_length_b    4.92732
_cell_length_c    8.55491
_cell_angle_alpha 90.00000
_cell_angle_beta  110.07571
_cell_angle_gamma 90.00000
 
loop_
_space_group_symop_id
_space_group_symop_operation_xyz
1 x,y,z
2 x,-y,z
3 x+1/2,y+1/2,z
4 x+1/2,-y+1/2,z
 
loop_
_atom_site_label
_atom_site_type_symbol
_atom_site_symmetry_multiplicity
_atom_site_Wyckoff_label
_atom_site_fract_x
_atom_site_fract_y
_atom_site_fract_z
_atom_site_occupancy
Fe1 Fe   2 a 0.67736  0.00000 0.15589  1.00000
Fe2 Fe   2 a 0.31064  0.00000 0.15451  1.00000
Fe3 Fe   2 a 0.50020  0.00000 0.63921  1.00000
Fe4 Fe   4 b 0.82467  0.25066 0.39809  1.00000
Fe5 Fe   2 a 0.57331  0.00000 0.38646  1.00000
Fe6 Fe   4 b 0.65813  0.25120 0.89532  1.00000
Sc1 Sc   2 a -0.00169 0.00000 0.16892  1.00000
Sc2 Sc   2 a 0.41354  0.00000 -0.08871 1.00000
Sc3 Sc   2 a 0.12797  0.00000 0.56476  1.00000
Sc4 Sc   2 a 0.84647  0.00000 0.69687  1.00000
 
