# CIF file
# This file was generated by FINDSYM
# Harold T. Stokes, Branton J. Campbell, Dorian M. Hatch
# Brigham Young University, Provo, Utah, USA
 
data_findsym-output
_audit_creation_method FINDSYM
 
_symmetry_space_group_name_H-M "C 1 m 1"
_symmetry_Int_Tables_number 8
 
_cell_length_a    8.63472
_cell_length_b    4.89132
_cell_length_c    8.61621
_cell_angle_alpha 90.00000
_cell_angle_beta  109.35698
_cell_angle_gamma 90.00000
 
loop_
_space_group_symop_id
_space_group_symop_operation_xyz
1 x,y,z
2 x,-y,z
3 x+1/2,y+1/2,z
4 x+1/2,-y+1/2,z
 
loop_
_atom_site_label
_atom_site_type_symbol
_atom_site_symmetry_multiplicity
_atom_site_Wyckoff_label
_atom_site_fract_x
_atom_site_fract_y
_atom_site_fract_z
_atom_site_occupancy
Fe1 Fe   4 b 0.47137  0.24895 0.15393  1.00000
Fe2 Fe   2 a 0.65013  0.00000 0.44290  1.00000
Fe3 Fe   2 a 0.47750  0.00000 -0.09425 1.00000
Fe4 Fe   4 b -0.03340 0.24957 0.64642  1.00000
Fe5 Fe   2 a 0.71859  0.00000 0.15230  1.00000
Fe6 Fe   2 a -0.04623 0.00000 0.39212  1.00000
Sc1 Sc   2 a 0.21393  0.00000 0.63585  1.00000
Sc2 Sc   2 a 0.15732  0.00000 -0.02790 1.00000
Sc3 Sc   2 a 0.28732  0.00000 0.33368  1.00000
Sc4 Sc   2 a 0.78708  0.00000 0.84464  1.00000
 
