# CIF file
# This file was generated by FINDSYM
# Harold T. Stokes, Branton J. Campbell, Dorian M. Hatch
# Brigham Young University, Provo, Utah, USA
 
data_findsym-output
_audit_creation_method FINDSYM
 
_symmetry_space_group_name_H-M "P 1"
_symmetry_Int_Tables_number 1
 
_cell_length_a    4.87775
_cell_length_b    4.89547
_cell_length_c    6.39969
_cell_angle_alpha 97.07302
_cell_angle_beta  97.30749
_cell_angle_gamma 119.31594
 
loop_
_space_group_symop_id
_space_group_symop_operation_xyz
1 x,y,z
 
loop_
_atom_site_label
_atom_site_type_symbol
_atom_site_symmetry_multiplicity
_atom_site_Wyckoff_label
_atom_site_fract_x
_atom_site_fract_y
_atom_site_fract_z
_atom_site_occupancy
Fe1 Fe   1 a 0.54965  0.30003 0.35506 1.00000
Fe2 Fe   1 a 0.60827  0.07013 0.01613 1.00000
Fe3 Fe   1 a 0.23026  0.31606 0.02295 1.00000
Fe4 Fe   1 a 0.82900  0.23588 0.69348 1.00000
Fe5 Fe   1 a 0.54954  0.79734 0.34840 1.00000
Fe6 Fe   1 a 0.04468  0.29743 0.35712 1.00000
Sc1 Sc   1 a -0.01092 0.72090 0.11223 1.00000
Sc2 Sc   1 a 0.50529  0.58174 0.72755 1.00000
Sc3 Sc   1 a 0.13214  0.87868 0.59929 1.00000
 
