# CIF file
# This file was generated by FINDSYM
# Harold T. Stokes, Branton J. Campbell, Dorian M. Hatch
# Brigham Young University, Provo, Utah, USA
 
data_findsym-output
_audit_creation_method FINDSYM
 
_symmetry_space_group_name_H-M "C 1 2/m 1"
_symmetry_Int_Tables_number 12
 
_cell_length_a    8.50626
_cell_length_b    4.86563
_cell_length_c    6.55673
_cell_angle_alpha 90.00000
_cell_angle_beta  107.58543
_cell_angle_gamma 90.00000
 
loop_
_space_group_symop_id
_space_group_symop_operation_xyz
1 x,y,z
2 -x,y,-z
3 -x,-y,-z
4 x,-y,z
5 x+1/2,y+1/2,z
6 -x+1/2,y+1/2,-z
7 -x+1/2,-y+1/2,-z
8 x+1/2,-y+1/2,z
 
loop_
_atom_site_label
_atom_site_type_symbol
_atom_site_symmetry_multiplicity
_atom_site_Wyckoff_label
_atom_site_fract_x
_atom_site_fract_y
_atom_site_fract_z
_atom_site_occupancy
Fe1 Fe   8 j 0.34012 0.24309 0.67854 1.00000
Fe2 Fe   2 c 0.00000 0.00000 0.50000 1.00000
Fe3 Fe   4 i 0.59688 0.00000 0.67568 1.00000
Fe4 Fe   2 b 0.00000 0.50000 0.00000 1.00000
Sc1 Sc   4 i 0.85233 0.00000 0.08316 1.00000
 
