# CIF file
# This file was generated by FINDSYM
# Harold T. Stokes, Branton J. Campbell, Dorian M. Hatch
# Brigham Young University, Provo, Utah, USA
 
data_findsym-output
_audit_creation_method FINDSYM
 
_symmetry_space_group_name_H-M "P -1"
_symmetry_Int_Tables_number 2
 
_cell_length_a    4.84788
_cell_length_b    4.85942
_cell_length_c    6.57196
_cell_angle_alpha 71.98104
_cell_angle_beta  86.14203
_cell_angle_gamma 61.55970
 
loop_
_space_group_symop_id
_space_group_symop_operation_xyz
1 x,y,z
2 -x,-y,-z
 
loop_
_atom_site_label
_atom_site_type_symbol
_atom_site_symmetry_multiplicity
_atom_site_Wyckoff_label
_atom_site_fract_x
_atom_site_fract_y
_atom_site_fract_z
_atom_site_occupancy
Fe1 Fe   1 g 0.00000 0.50000 0.50000 1.00000
Fe2 Fe   2 i 0.11886 0.31369 0.17695 1.00000
Fe3 Fe   2 i 0.62556 0.82709 0.17544 1.00000
Fe4 Fe   2 i 0.11550 0.83082 0.17987 1.00000
Fe5 Fe   1 e 0.50000 0.50000 0.00000 1.00000
Sc1 Sc   2 i 0.65504 0.20767 0.41873 1.00000
 
