# CIF file
# This file was generated by FINDSYM
# Harold T. Stokes, Branton J. Campbell, Dorian M. Hatch
# Brigham Young University, Provo, Utah, USA
 
data_findsym-output
_audit_creation_method FINDSYM
 
_symmetry_space_group_name_H-M "P -1"
_symmetry_Int_Tables_number 2
 
_cell_length_a    4.92322
_cell_length_b    5.20184
_cell_length_c    5.22352
_cell_angle_alpha 89.13037
_cell_angle_beta  89.81882
_cell_angle_gamma 89.82405
 
loop_
_space_group_symop_id
_space_group_symop_operation_xyz
1 x,y,z
2 -x,-y,-z
 
loop_
_atom_site_label
_atom_site_type_symbol
_atom_site_symmetry_multiplicity
_atom_site_Wyckoff_label
_atom_site_fract_x
_atom_site_fract_y
_atom_site_fract_z
_atom_site_occupancy
Fe1 Fe   2 i 0.75023  0.61728  0.05302 1.00000
Fe2 Fe   2 i 0.74971  -0.05453 0.38261 1.00000
Fe3 Fe   2 i 0.49867  0.33946  0.33816 1.00000
Fe4 Fe   2 i -0.00170 0.33906  0.33851 1.00000
Sc1 Sc   2 i 0.24997  0.85443  0.14627 1.00000
 
