# CIF file
# This file was generated by FINDSYM
# Harold T. Stokes, Branton J. Campbell, Dorian M. Hatch
# Brigham Young University, Provo, Utah, USA
 
data_findsym-output
_audit_creation_method FINDSYM
 
_symmetry_space_group_name_H-M "P -1"
_symmetry_Int_Tables_number 2
 
_cell_length_a    4.81357
_cell_length_b    4.90049
_cell_length_c    6.15963
_cell_angle_alpha 67.67621
_cell_angle_beta  78.80391
_cell_angle_gamma 88.91695
 
loop_
_space_group_symop_id
_space_group_symop_operation_xyz
1 x,y,z
2 -x,-y,-z
 
loop_
_atom_site_label
_atom_site_type_symbol
_atom_site_symmetry_multiplicity
_atom_site_Wyckoff_label
_atom_site_fract_x
_atom_site_fract_y
_atom_site_fract_z
_atom_site_occupancy
Fe1 Fe   1 b 0.00000 0.00000 0.50000 1.00000
Fe2 Fe   1 f 0.50000 0.00000 0.50000 1.00000
Fe3 Fe   2 i 0.67385 0.60749 0.82113 1.00000
Fe4 Fe   2 i 0.13621 0.81196 0.88556 1.00000
Fe5 Fe   2 i 0.67175 0.09894 0.81653 1.00000
Sc1 Sc   2 i 0.78432 0.58348 0.32852 1.00000
 
