# CIF file
# This file was generated by FINDSYM
# Harold T. Stokes, Branton J. Campbell, Dorian M. Hatch
# Brigham Young University, Provo, Utah, USA
 
data_findsym-output
_audit_creation_method FINDSYM
 
_symmetry_space_group_name_H-M "P 1 m 1"
_symmetry_Int_Tables_number 6
 
_cell_length_a    5.09255
_cell_length_b    3.91169
_cell_length_c    5.10009
_cell_angle_alpha 90.00000
_cell_angle_beta  98.34261
_cell_angle_gamma 90.00000
 
loop_
_space_group_symop_id
_space_group_symop_operation_xyz
1 x,y,z
2 x,-y,z
 
loop_
_atom_site_label
_atom_site_type_symbol
_atom_site_symmetry_multiplicity
_atom_site_Wyckoff_label
_atom_site_fract_x
_atom_site_fract_y
_atom_site_fract_z
_atom_site_occupancy
Co1 Co   1 b 0.21510  0.50000 0.73385  1.00000
Co2 Co   1 a -0.00216 0.00000 -0.00176 1.00000
Fe1 Fe   1 b 0.22455  0.50000 0.23097  1.00000
Fe2 Fe   1 a 0.44409  0.00000 0.45256  1.00000
Fe3 Fe   1 b 0.72428  0.50000 0.21941  1.00000
Fe4 Fe   1 b 0.71537  0.50000 0.71780  1.00000
Ta1 Ta   1 a 0.49176  0.00000 -0.04492 1.00000
Ta2 Ta   1 a -0.05353 0.00000 0.49401  1.00000
 
