# CIF file
# This file was generated by FINDSYM
# Harold T. Stokes, Branton J. Campbell, Dorian M. Hatch
# Brigham Young University, Provo, Utah, USA
 
data_findsym-output
_audit_creation_method FINDSYM
 
_symmetry_space_group_name_H-M "P -1"
_symmetry_Int_Tables_number 2
 
_cell_length_a    5.07561
_cell_length_b    5.69029
_cell_length_c    6.23112
_cell_angle_alpha 111.41541
_cell_angle_beta  90.22957
_cell_angle_gamma 102.73760
 
loop_
_space_group_symop_id
_space_group_symop_operation_xyz
1 x,y,z
2 -x,-y,-z
 
loop_
_atom_site_label
_atom_site_type_symbol
_atom_site_symmetry_multiplicity
_atom_site_Wyckoff_label
_atom_site_fract_x
_atom_site_fract_y
_atom_site_fract_z
_atom_site_occupancy
Co1 Co   2 i 0.14108 0.58495 0.86431 1.00000
Co2 Co   1 a 0.00000 0.00000 0.00000 1.00000
Co3 Co   2 i 0.42480 0.69963 0.58117 1.00000
Co4 Co   2 i 0.78730 0.15265 0.72595 1.00000
Co5 Co   1 d 0.50000 0.00000 0.00000 1.00000
Co6 Co   2 i 0.07367 0.29968 0.42201 1.00000
Co7 Co   2 i 0.34819 0.42255 0.14668 1.00000
Ta1 Ta   2 i 0.71570 0.86140 0.29873 1.00000
 
