# CIF file
# This file was generated by FINDSYM
# Harold T. Stokes, Branton J. Campbell, Dorian M. Hatch
# Brigham Young University, Provo, Utah, USA
 
data_findsym-output
_audit_creation_method FINDSYM
 
_symmetry_space_group_name_H-M "P -1"
_symmetry_Int_Tables_number 2
 
_cell_length_a    5.08895
_cell_length_b    5.68007
_cell_length_c    6.72148
_cell_angle_alpha 114.68428
_cell_angle_beta  101.02717
_cell_angle_gamma 103.07280
 
loop_
_space_group_symop_id
_space_group_symop_operation_xyz
1 x,y,z
2 -x,-y,-z
 
loop_
_atom_site_label
_atom_site_type_symbol
_atom_site_symmetry_multiplicity
_atom_site_Wyckoff_label
_atom_site_fract_x
_atom_site_fract_y
_atom_site_fract_z
_atom_site_occupancy
Co1 Co   2 i 0.52980  0.28102 0.36290  1.00000
Co2 Co   2 i -0.04039 0.72611 0.64506  1.00000
Co3 Co   2 i 0.73724  0.00280 0.49951  1.00000
Co4 Co   2 i 0.61579  0.88220 0.08212  1.00000
Co5 Co   2 i 0.88551  0.12283 -0.07833 1.00000
Co6 Co   2 i 0.32242  0.57034 0.22509  1.00000
Ta1 Ta   2 i 0.18416  0.43484 0.79766  1.00000
 
