# CIF file
# This file was generated by FINDSYM
# Harold T. Stokes, Branton J. Campbell, Dorian M. Hatch
# Brigham Young University, Provo, Utah, USA
 
data_findsym-output
_audit_creation_method FINDSYM
 
_symmetry_space_group_name_H-M "P -1"
_symmetry_Int_Tables_number 2
 
_cell_length_a    4.39197
_cell_length_b    5.71438
_cell_length_c    6.71615
_cell_angle_alpha 90.03002
_cell_angle_beta  90.01205
_cell_angle_gamma 104.99651
 
loop_
_space_group_symop_id
_space_group_symop_operation_xyz
1 x,y,z
2 -x,-y,-z
 
loop_
_atom_site_label
_atom_site_type_symbol
_atom_site_symmetry_multiplicity
_atom_site_Wyckoff_label
_atom_site_fract_x
_atom_site_fract_y
_atom_site_fract_z
_atom_site_occupancy
Co1 Co   2 i 0.41794 0.30368  0.07512 1.00000
Co2 Co   1 c 0.00000 0.50000  0.00000 1.00000
Co3 Co   2 i 0.13664 -0.08267 0.85031 1.00000
Co4 Co   2 i 0.42755 0.77531  0.57435 1.00000
Co5 Co   2 i 0.86494 0.58614  0.63633 1.00000
Co6 Co   1 b 0.00000 0.00000  0.50000 1.00000
Co7 Co   2 i 0.71211 0.63124  0.29072 1.00000
Ta1 Ta   2 i 0.70826 0.14196  0.79018 1.00000
 
