# CIF file
# This file was generated by FINDSYM
# Harold T. Stokes, Branton J. Campbell, Dorian M. Hatch
# Brigham Young University, Provo, Utah, USA
 
data_findsym-output
_audit_creation_method FINDSYM
 
_symmetry_space_group_name_H-M "P -1"
_symmetry_Int_Tables_number 2
 
_cell_length_a    4.40608
_cell_length_b    4.84654
_cell_length_c    8.68443
_cell_angle_alpha 99.80908
_cell_angle_beta  90.03286
_cell_angle_gamma 116.72078
 
loop_
_space_group_symop_id
_space_group_symop_operation_xyz
1 x,y,z
2 -x,-y,-z
 
loop_
_atom_site_label
_atom_site_type_symbol
_atom_site_symmetry_multiplicity
_atom_site_Wyckoff_label
_atom_site_fract_x
_atom_site_fract_y
_atom_site_fract_z
_atom_site_occupancy
Co1 Co   2 i 0.22097  0.76210  0.53354  1.00000
Co2 Co   2 i 0.61847  -0.08302 0.17001  1.00000
Co3 Co   2 i 0.64230  0.64752  0.38444  1.00000
Co4 Co   2 i 0.06724  0.49478  0.24398  1.00000
Co5 Co   2 i -0.05443 0.21600  -0.02703 1.00000
Co6 Co   2 i 0.51925  0.36421  0.10296  1.00000
Ta1 Ta   2 i 0.80323  -0.07079 0.67526  1.00000
 
