# CIF file
# This file was generated by FINDSYM
# Harold T. Stokes, Branton J. Campbell, Dorian M. Hatch
# Brigham Young University, Provo, Utah, USA
 
data_findsym-output
_audit_creation_method FINDSYM
 
_symmetry_space_group_name_H-M "P 1 2/m 1"
_symmetry_Int_Tables_number 10
 
_cell_length_a    5.70627
_cell_length_b    3.56567
_cell_length_c    8.06048
_cell_angle_alpha 90.00000
_cell_angle_beta  98.35368
_cell_angle_gamma 90.00000
 
loop_
_space_group_symop_id
_space_group_symop_operation_xyz
1 x,y,z
2 -x,y,-z
3 -x,-y,-z
4 x,-y,z
 
loop_
_atom_site_label
_atom_site_type_symbol
_atom_site_symmetry_multiplicity
_atom_site_Wyckoff_label
_atom_site_fract_x
_atom_site_fract_y
_atom_site_fract_z
_atom_site_occupancy
Co1 Co   1 e 0.50000  0.50000 0.00000 1.00000
Co2 Co   2 m 0.20080  0.00000 0.07692 1.00000
Co3 Co   2 m 0.08319  0.00000 0.36231 1.00000
Co4 Co   2 n 0.34558  0.50000 0.29041 1.00000
Co5 Co   2 n 0.20848  0.50000 0.56195 1.00000
Co6 Co   1 g 0.50000  0.00000 0.50000 1.00000
Co7 Co   2 n -0.05640 0.50000 0.13959 1.00000
Ta1 Ta   2 m 0.35623  0.00000 0.78728 1.00000
 
