# CIF file
# This file was generated by FINDSYM
# Harold T. Stokes, Branton J. Campbell, Dorian M. Hatch
# Brigham Young University, Provo, Utah, USA
 
data_findsym-output
_audit_creation_method FINDSYM
 
_symmetry_space_group_name_H-M "P -1"
_symmetry_Int_Tables_number 2
 
_cell_length_a    4.39666
_cell_length_b    5.07694
_cell_length_c    8.06080
_cell_angle_alpha 108.32545
_cell_angle_beta  90.64899
_cell_angle_gamma 105.55434
 
loop_
_space_group_symop_id
_space_group_symop_operation_xyz
1 x,y,z
2 -x,-y,-z
 
loop_
_atom_site_label
_atom_site_type_symbol
_atom_site_symmetry_multiplicity
_atom_site_Wyckoff_label
_atom_site_fract_x
_atom_site_fract_y
_atom_site_fract_z
_atom_site_occupancy
Co1 Co   2 i -0.07469 0.78406  0.36744  1.00000
Co2 Co   2 i 0.34155  0.57636  0.23099  1.00000
Co3 Co   1 f 0.50000  0.00000  0.50000  1.00000
Co4 Co   2 i 0.65851  -0.08079 0.77112  1.00000
Co5 Co   2 i 0.80113  0.35829  0.08369  1.00000
Co6 Co   1 h 0.50000  0.50000  0.50000  1.00000
Co7 Co   2 i -0.08070 0.29356  0.36521  1.00000
Ta1 Ta   2 i 0.25505  0.16390  -0.07332 1.00000
 
