# CIF file
# This file was generated by FINDSYM
# Harold T. Stokes, Branton J. Campbell, Dorian M. Hatch
# Brigham Young University, Provo, Utah, USA
 
data_findsym-output
_audit_creation_method FINDSYM
 
_symmetry_space_group_name_H-M "C 1 2/m 1"
_symmetry_Int_Tables_number 12
 
_cell_length_a    8.08362
_cell_length_b    3.56558
_cell_length_c    11.42984
_cell_angle_alpha 90.00000
_cell_angle_beta  97.98378
_cell_angle_gamma 90.00000
 
loop_
_space_group_symop_id
_space_group_symop_operation_xyz
1 x,y,z
2 -x,y,-z
3 -x,-y,-z
4 x,-y,z
5 x+1/2,y+1/2,z
6 -x+1/2,y+1/2,-z
7 -x+1/2,-y+1/2,-z
8 x+1/2,-y+1/2,z
 
loop_
_atom_site_label
_atom_site_type_symbol
_atom_site_symmetry_multiplicity
_atom_site_Wyckoff_label
_atom_site_fract_x
_atom_site_fract_y
_atom_site_fract_z
_atom_site_occupancy
Co1 Co   4 i -0.06657 0.00000 0.89742  1.00000
Co2 Co   4 i 0.49996  0.00000 0.26065  1.00000
Co3 Co   4 i 0.35852  0.00000 0.53452  1.00000
Co4 Co   4 i 0.79346  0.00000 0.66744  1.00000
Co5 Co   4 i 0.07114  0.00000 0.60036  1.00000
Co6 Co   4 i 0.63474  0.00000 -0.03488 1.00000
Ta1 Ta   4 i 0.78337  0.00000 0.18058  1.00000
 
