# CIF file
# This file was generated by FINDSYM
# Harold T. Stokes, Branton J. Campbell, Dorian M. Hatch
# Brigham Young University, Provo, Utah, USA
 
data_findsym-output
_audit_creation_method FINDSYM
 
_symmetry_space_group_name_H-M "C 1 2 1"
_symmetry_Int_Tables_number 5
 
_cell_length_a    11.19537
_cell_length_b    4.43462
_cell_length_c    6.55628
_cell_angle_alpha 90.00000
_cell_angle_beta  94.77520
_cell_angle_gamma 90.00000
 
loop_
_space_group_symop_id
_space_group_symop_operation_xyz
1 x,y,z
2 -x,y,-z
3 x+1/2,y+1/2,z
4 -x+1/2,y+1/2,-z
 
loop_
_atom_site_label
_atom_site_type_symbol
_atom_site_symmetry_multiplicity
_atom_site_Wyckoff_label
_atom_site_fract_x
_atom_site_fract_y
_atom_site_fract_z
_atom_site_occupancy
Co1 Co   2 a 0.00000  0.15408 0.00000 1.00000
Co2 Co   4 c 0.57985  0.21251 0.84071 1.00000
Co3 Co   4 c -0.07200 0.03092 0.62857 1.00000
Co4 Co   4 c 0.86238  0.21067 0.28185 1.00000
Co5 Co   2 b 0.00000  0.52881 0.50000 1.00000
Co6 Co   4 c 0.28434  0.19287 0.42929 1.00000
Co7 Co   4 c 0.21428  0.02846 0.07390 1.00000
Ta1 Ta   4 c 0.36325  0.02975 0.79637 1.00000
 
