# CIF file
# This file was generated by FINDSYM
# Harold T. Stokes, Branton J. Campbell, Dorian M. Hatch
# Brigham Young University, Provo, Utah, USA
 
data_findsym-output
_audit_creation_method FINDSYM
 
_symmetry_space_group_name_H-M "C 1 2/c 1"
_symmetry_Int_Tables_number 15
 
_cell_length_a    4.40943
_cell_length_b    17.86114
_cell_length_c    4.40947
_cell_angle_alpha 90.00000
_cell_angle_beta  109.65356
_cell_angle_gamma 90.00000
 
loop_
_space_group_symop_id
_space_group_symop_operation_xyz
1 x,y,z
2 -x,y,-z+1/2
3 -x,-y,-z
4 x,-y,z+1/2
5 x+1/2,y+1/2,z
6 -x+1/2,y+1/2,-z+1/2
7 -x+1/2,-y+1/2,-z
8 x+1/2,-y+1/2,z+1/2
 
loop_
_atom_site_label
_atom_site_type_symbol
_atom_site_symmetry_multiplicity
_atom_site_Wyckoff_label
_atom_site_fract_x
_atom_site_fract_y
_atom_site_fract_z
_atom_site_occupancy
Co1 Co   4 e 0.00000 0.89799 0.25000 1.00000
Co2 Co   4 e 0.00000 0.60269 0.25000 1.00000
Co3 Co   4 e 0.00000 0.46817 0.25000 1.00000
Co4 Co   4 e 0.00000 0.03517 0.25000 1.00000
Co5 Co   4 e 0.00000 0.17094 0.25000 1.00000
Co6 Co   4 e 0.00000 0.75038 0.25000 1.00000
Ta1 Ta   4 e 0.00000 0.31835 0.25000 1.00000
 
