# CIF file
# This file was generated by FINDSYM
# Harold T. Stokes, Branton J. Campbell, Dorian M. Hatch
# Brigham Young University, Provo, Utah, USA
 
data_findsym-output
_audit_creation_method FINDSYM
 
_symmetry_space_group_name_H-M "P -1"
_symmetry_Int_Tables_number 2
 
_cell_length_a    4.24843
_cell_length_b    4.72821
_cell_length_c    4.77931
_cell_angle_alpha 96.02574
_cell_angle_beta  110.64401
_cell_angle_gamma 116.63144
 
loop_
_space_group_symop_id
_space_group_symop_operation_xyz
1 x,y,z
2 -x,-y,-z
 
loop_
_atom_site_label
_atom_site_type_symbol
_atom_site_symmetry_multiplicity
_atom_site_Wyckoff_label
_atom_site_fract_x
_atom_site_fract_y
_atom_site_fract_z
_atom_site_occupancy
Fe1 Fe   2 i 0.10248 0.41243 0.25250 1.00000
Fe2 Fe   2 i 0.77109 0.75172 0.24826 1.00000
Fe3 Fe   2 i 0.48398 0.10024 0.28613 1.00000
N1  N    1 a 0.00000 0.00000 0.00000 1.00000
 
