# CIF file
# This file was generated by FINDSYM
# Harold T. Stokes, Branton J. Campbell, Dorian M. Hatch
# Brigham Young University, Provo, Utah, USA
 
data_findsym-output
_audit_creation_method FINDSYM
 
_symmetry_space_group_name_H-M "P -1"
_symmetry_Int_Tables_number 2
 
_cell_length_a    2.57834
_cell_length_b    5.10339
_cell_length_c    6.12375
_cell_angle_alpha 99.50659
_cell_angle_beta  99.27786
_cell_angle_gamma 102.68385
 
loop_
_space_group_symop_id
_space_group_symop_operation_xyz
1 x,y,z
2 -x,-y,-z
 
loop_
_atom_site_label
_atom_site_type_symbol
_atom_site_symmetry_multiplicity
_atom_site_Wyckoff_label
_atom_site_fract_x
_atom_site_fract_y
_atom_site_fract_z
_atom_site_occupancy
Fe1 Fe   2 i 0.15728 0.07930 0.33140 1.00000
Fe2 Fe   2 i 0.60047 0.27865 0.00219 1.00000
Fe3 Fe   2 i 0.81606 0.41020 0.65597 1.00000
N1  N    1 a 0.00000 0.00000 0.00000 1.00000
 
