# CIF file
# This file was generated by FINDSYM
# Harold T. Stokes, Branton J. Campbell, Dorian M. Hatch
# Brigham Young University, Provo, Utah, USA
 
data_findsym-output
_audit_creation_method FINDSYM
 
_symmetry_space_group_name_H-M "P 1 m 1"
_symmetry_Int_Tables_number 6
 
_cell_length_a    4.99039
_cell_length_b    4.05789
_cell_length_c    7.48072
_cell_angle_alpha 90.00000
_cell_angle_beta  109.20665
_cell_angle_gamma 90.00000
 
loop_
_space_group_symop_id
_space_group_symop_operation_xyz
1 x,y,z
2 x,-y,z
 
loop_
_atom_site_label
_atom_site_type_symbol
_atom_site_symmetry_multiplicity
_atom_site_Wyckoff_label
_atom_site_fract_x
_atom_site_fract_y
_atom_site_fract_z
_atom_site_occupancy
Co1  Co   1 a -0.00028 0.00000 -0.00016 1.00000
Fe1  Fe   1 b 0.75227  0.50000 0.16873  1.00000
Fe2  Fe   1 b 0.75521  0.50000 0.83859  1.00000
Fe3  Fe   1 a 0.01028  0.00000 0.67508  1.00000
Fe4  Fe   1 b 0.77028  0.50000 0.51311  1.00000
Fe5  Fe   1 a 0.50300  0.00000 -0.00322 1.00000
Fe6  Fe   1 b 0.25672  0.50000 0.50619  1.00000
Fe7  Fe   1 a 0.50593  0.00000 0.67622  1.00000
Fe8  Fe   1 a 0.00462  0.00000 0.33564  1.00000
Fe9  Fe   1 b 0.23886  0.50000 0.15952  1.00000
Fe10 Fe   1 b 0.25718  0.50000 0.83649  1.00000
Ta1  Ta   1 a 0.50625  0.00000 0.33809  1.00000
 
