# CIF file
# This file was generated by FINDSYM
# Harold T. Stokes, Branton J. Campbell, Dorian M. Hatch
# Brigham Young University, Provo, Utah, USA
 
data_findsym-output
_audit_creation_method FINDSYM
 
_symmetry_space_group_name_H-M "P 1 2/m 1"
_symmetry_Int_Tables_number 10
 
_cell_length_a    5.00031
_cell_length_b    4.05374
_cell_length_c    7.47786
_cell_angle_alpha 90.00000
_cell_angle_beta  109.30587
_cell_angle_gamma 90.00000
 
loop_
_space_group_symop_id
_space_group_symop_operation_xyz
1 x,y,z
2 -x,y,-z
3 -x,-y,-z
4 x,-y,z
 
loop_
_atom_site_label
_atom_site_type_symbol
_atom_site_symmetry_multiplicity
_atom_site_Wyckoff_label
_atom_site_fract_x
_atom_site_fract_y
_atom_site_fract_z
_atom_site_occupancy
Co1 Co   1 a 0.00000 0.00000 0.00000 1.00000
Fe1 Fe   2 m 0.00422 0.00000 0.33558 1.00000
Fe2 Fe   2 n 0.25219 0.50000 0.16941 1.00000
Fe3 Fe   2 n 0.23652 0.50000 0.82516 1.00000
Fe4 Fe   2 m 0.49692 0.00000 0.66042 1.00000
Fe5 Fe   2 n 0.25062 0.50000 0.50000 1.00000
Ta1 Ta   1 d 0.50000 0.00000 0.00000 1.00000
 
