# CIF file
# This file was generated by FINDSYM
# Harold T. Stokes, Branton J. Campbell, Dorian M. Hatch
# Brigham Young University, Provo, Utah, USA
 
data_findsym-output
_audit_creation_method FINDSYM
 
_symmetry_space_group_name_H-M "P 1 m 1"
_symmetry_Int_Tables_number 6
 
_cell_length_a    4.78357
_cell_length_b    4.05374
_cell_length_c    7.49860
_cell_angle_alpha 90.00000
_cell_angle_beta  100.20981
_cell_angle_gamma 90.00000
 
loop_
_space_group_symop_id
_space_group_symop_operation_xyz
1 x,y,z
2 x,-y,z
 
loop_
_atom_site_label
_atom_site_type_symbol
_atom_site_symmetry_multiplicity
_atom_site_Wyckoff_label
_atom_site_fract_x
_atom_site_fract_y
_atom_site_fract_z
_atom_site_occupancy
Co1  Co   1 a -0.00008 0.00000 0.00007  1.00000
Fe1  Fe   1 a -0.00445 0.00000 0.31857  1.00000
Fe2  Fe   1 a 0.50598  0.00000 0.83356  1.00000
Fe3  Fe   1 b 0.24958  0.50000 -0.08696 1.00000
Fe4  Fe   1 b 0.24875  0.50000 0.24132  1.00000
Fe5  Fe   1 b 0.73729  0.50000 0.74811  1.00000
Fe6  Fe   1 b 0.74818  0.50000 0.07751  1.00000
Fe7  Fe   1 b 0.74566  0.50000 0.40630  1.00000
Fe8  Fe   1 a 0.49019  0.00000 0.48606  1.00000
Fe9  Fe   1 a 0.49528  0.00000 0.15949  1.00000
Fe10 Fe   1 b 0.25762  0.50000 0.57118  1.00000
Ta1  Ta   1 a -0.00289 0.00000 0.65952  1.00000
 
