# CIF file
# This file was generated by FINDSYM
# Harold T. Stokes, Branton J. Campbell, Dorian M. Hatch
# Brigham Young University, Provo, Utah, USA
 
data_findsym-output
_audit_creation_method FINDSYM
 
_symmetry_space_group_name_H-M "P 1 m 1"
_symmetry_Int_Tables_number 6
 
_cell_length_a    4.78386
_cell_length_b    4.05321
_cell_length_c    7.49958
_cell_angle_alpha 90.00000
_cell_angle_beta  100.21150
_cell_angle_gamma 90.00000
 
loop_
_space_group_symop_id
_space_group_symop_operation_xyz
1 x,y,z
2 x,-y,z
 
loop_
_atom_site_label
_atom_site_type_symbol
_atom_site_symmetry_multiplicity
_atom_site_Wyckoff_label
_atom_site_fract_x
_atom_site_fract_y
_atom_site_fract_z
_atom_site_occupancy
Co1  Co   1 a 0.00014 0.00000 -0.00006 1.00000
Fe1  Fe   1 a 0.49423 0.00000 0.16645  1.00000
Fe2  Fe   1 b 0.25454 0.50000 0.59373  1.00000
Fe3  Fe   1 a 0.00456 0.00000 0.68148  1.00000
Fe4  Fe   1 b 0.75055 0.50000 0.08693  1.00000
Fe5  Fe   1 b 0.26297 0.50000 0.25191  1.00000
Fe6  Fe   1 b 0.25184 0.50000 -0.07753 1.00000
Fe7  Fe   1 a 0.51012 0.00000 0.51390  1.00000
Fe8  Fe   1 b 0.74267 0.50000 0.42875  1.00000
Fe9  Fe   1 a 0.50474 0.00000 0.84050  1.00000
Fe10 Fe   1 b 0.75128 0.50000 0.75864  1.00000
Ta1  Ta   1 a 0.00322 0.00000 0.34046  1.00000
 
