# CIF file
# This file was generated by FINDSYM
# Harold T. Stokes, Branton J. Campbell, Dorian M. Hatch
# Brigham Young University, Provo, Utah, USA
 
data_findsym-output
_audit_creation_method FINDSYM
 
_symmetry_space_group_name_H-M "P 1 m 1"
_symmetry_Int_Tables_number 6
 
_cell_length_a    4.98924
_cell_length_b    4.05611
_cell_length_c    7.05885
_cell_angle_alpha 90.00000
_cell_angle_beta  90.09534
_cell_angle_gamma 90.00000
 
loop_
_space_group_symop_id
_space_group_symop_operation_xyz
1 x,y,z
2 x,-y,z
 
loop_
_atom_site_label
_atom_site_type_symbol
_atom_site_symmetry_multiplicity
_atom_site_Wyckoff_label
_atom_site_fract_x
_atom_site_fract_y
_atom_site_fract_z
_atom_site_occupancy
Co1  Co   1 a 0.00002 0.00000 0.00001  1.00000
Fe1  Fe   1 a 0.16854 0.00000 0.32282  1.00000
Fe2  Fe   1 a 0.66207 0.00000 0.31840  1.00000
Fe3  Fe   1 b 0.49908 0.50000 0.48880  1.00000
Fe4  Fe   1 b 0.16466 0.50000 0.82911  1.00000
Fe5  Fe   1 b 0.65341 0.50000 0.83359  1.00000
Fe6  Fe   1 a 0.49312 0.00000 -0.00492 1.00000
Fe7  Fe   1 b 0.83128 0.50000 0.15816  1.00000
Fe8  Fe   1 a 0.33132 0.00000 0.65896  1.00000
Fe9  Fe   1 b 0.00843 0.50000 0.48443  1.00000
Fe10 Fe   1 b 0.33208 0.50000 0.15907  1.00000
Ta1  Ta   1 a 0.83108 0.00000 0.65882  1.00000
 
