# CIF file
# This file was generated by FINDSYM
# Harold T. Stokes, Branton J. Campbell, Dorian M. Hatch
# Brigham Young University, Provo, Utah, USA
 
data_findsym-output
_audit_creation_method FINDSYM
 
_symmetry_space_group_name_H-M "P -1"
_symmetry_Int_Tables_number 2
 
_cell_length_a    4.76895
_cell_length_b    4.77365
_cell_length_c    6.43897
_cell_angle_alpha 97.62932
_cell_angle_beta  97.64477
_cell_angle_gamma 95.22868
 
loop_
_space_group_symop_id
_space_group_symop_operation_xyz
1 x,y,z
2 -x,-y,-z
 
loop_
_atom_site_label
_atom_site_type_symbol
_atom_site_symmetry_multiplicity
_atom_site_Wyckoff_label
_atom_site_fract_x
_atom_site_fract_y
_atom_site_fract_z
_atom_site_occupancy
Co1 Co   1 a 0.00000 0.00000 0.00000 1.00000
Fe1 Fe   2 i 0.58621 0.24823 0.08250 1.00000
Fe2 Fe   2 i 0.75482 0.75302 0.24255 1.00000
Fe3 Fe   2 i 0.07659 0.75763 0.58499 1.00000
Fe4 Fe   2 i 0.83872 0.50485 0.84070 1.00000
Fe5 Fe   2 i 0.67039 0.01048 0.67359 1.00000
Ta1 Ta   1 h 0.50000 0.50000 0.50000 1.00000
 
