# CIF file
# This file was generated by FINDSYM
# Harold T. Stokes, Branton J. Campbell, Dorian M. Hatch
# Brigham Young University, Provo, Utah, USA
 
data_findsym-output
_audit_creation_method FINDSYM
 
_symmetry_space_group_name_H-M "C 1 m 1"
_symmetry_Int_Tables_number 8
 
_cell_length_a    8.69529
_cell_length_b    4.06145
_cell_length_c    8.61097
_cell_angle_alpha 90.00000
_cell_angle_beta  109.69355
_cell_angle_gamma 90.00000
 
loop_
_space_group_symop_id
_space_group_symop_operation_xyz
1 x,y,z
2 x,-y,z
3 x+1/2,y+1/2,z
4 x+1/2,-y+1/2,z
 
loop_
_atom_site_label
_atom_site_type_symbol
_atom_site_symmetry_multiplicity
_atom_site_Wyckoff_label
_atom_site_fract_x
_atom_site_fract_y
_atom_site_fract_z
_atom_site_occupancy
Co1  Co   2 a -0.00007 0.00000 0.00011 1.00000
Fe1  Fe   2 a 0.17050  0.00000 0.51361 1.00000
Fe2  Fe   2 a 0.08729  0.00000 0.75831 1.00000
Fe3  Fe   2 a 0.75476  0.00000 0.75764 1.00000
Fe4  Fe   2 a 0.83895  0.00000 0.51045 1.00000
Fe5  Fe   2 a 0.66937  0.00000 0.00362 1.00000
Fe6  Fe   2 a 0.50933  0.00000 0.51298 1.00000
Fe7  Fe   2 a 0.58343  0.00000 0.25798 1.00000
Fe8  Fe   2 a 0.33967  0.00000 0.00048 1.00000
Fe9  Fe   2 a -0.07457 0.00000 0.25553 1.00000
Fe10 Fe   2 a 0.42122  0.00000 0.75618 1.00000
Ta1  Ta   2 a 0.25437  0.00000 0.25761 1.00000
 
