# CIF file
# This file was generated by FINDSYM
# Harold T. Stokes, Branton J. Campbell, Dorian M. Hatch
# Brigham Young University, Provo, Utah, USA
 
data_findsym-output
_audit_creation_method FINDSYM
 
_symmetry_space_group_name_H-M "P 1"
_symmetry_Int_Tables_number 1
 
_cell_length_a    4.76700
_cell_length_b    4.77468
_cell_length_c    6.44031
_cell_angle_alpha 97.62388
_cell_angle_beta  97.57013
_cell_angle_gamma 95.28162
 
loop_
_space_group_symop_id
_space_group_symop_operation_xyz
1 x,y,z
 
loop_
_atom_site_label
_atom_site_type_symbol
_atom_site_symmetry_multiplicity
_atom_site_Wyckoff_label
_atom_site_fract_x
_atom_site_fract_y
_atom_site_fract_z
_atom_site_occupancy
Co1  Co   1 a -0.00010 -0.00015 -0.00006 1.00000
Fe1  Fe   1 a 0.57840  0.24897  0.07613  1.00000
Fe2  Fe   1 a 0.74479  0.74450  0.24071  1.00000
Fe3  Fe   1 a 0.08534  0.73821  0.57229  1.00000
Fe4  Fe   1 a 0.83098  0.50784  0.83204  1.00000
Fe5  Fe   1 a -0.08458 0.24978  0.40309  1.00000
Fe6  Fe   1 a 0.23802  0.25493  0.74541  1.00000
Fe7  Fe   1 a 0.40532  0.74426  -0.08463 1.00000
Fe8  Fe   1 a 0.49188  0.48610  0.48639  1.00000
Fe9  Fe   1 a 0.16086  0.49537  0.15851  1.00000
Fe10 Fe   1 a 0.32203  -0.00588 0.31826  1.00000
Ta1  Ta   1 a 0.66216  -0.00397 0.65882  1.00000
 
