# CIF file
# This file was generated by FINDSYM
# Harold T. Stokes, Branton J. Campbell, Dorian M. Hatch
# Brigham Young University, Provo, Utah, USA
 
data_findsym-output
_audit_creation_method FINDSYM
 
_symmetry_space_group_name_H-M "P 1"
_symmetry_Int_Tables_number 1
 
_cell_length_a    4.76893
_cell_length_b    4.77967
_cell_length_c    6.43111
_cell_angle_alpha 97.60031
_cell_angle_beta  97.67681
_cell_angle_gamma 95.27263
 
loop_
_space_group_symop_id
_space_group_symop_operation_xyz
1 x,y,z
 
loop_
_atom_site_label
_atom_site_type_symbol
_atom_site_symmetry_multiplicity
_atom_site_Wyckoff_label
_atom_site_fract_x
_atom_site_fract_y
_atom_site_fract_z
_atom_site_occupancy
Co1  Co   1 a 0.00007  -0.00015 0.00007  1.00000
Fe1  Fe   1 a 0.83145  0.50822  0.83301  1.00000
Fe2  Fe   1 a 0.67110  0.01014  0.67395  1.00000
Fe3  Fe   1 a 0.59413  0.25270  0.08702  1.00000
Fe4  Fe   1 a 0.42286  0.76245  -0.08339 1.00000
Fe5  Fe   1 a 0.25426  0.25830  0.75634  1.00000
Fe6  Fe   1 a 0.33833  0.02179  0.34538  1.00000
Fe7  Fe   1 a 0.50790  0.51301  0.51305  1.00000
Fe8  Fe   1 a 0.74509  0.76866  0.25844  1.00000
Fe9  Fe   1 a -0.08511 0.25858  0.42989  1.00000
Fe10 Fe   1 a 0.08598  0.76185  0.58989  1.00000
Ta1  Ta   1 a 0.16885  0.51035  0.17291  1.00000
 
