# CIF file
# This file was generated by FINDSYM
# Harold T. Stokes, Branton J. Campbell, Dorian M. Hatch
# Brigham Young University, Provo, Utah, USA
 
data_findsym-output
_audit_creation_method FINDSYM
 
_symmetry_space_group_name_H-M "C 1 m 1"
_symmetry_Int_Tables_number 8
 
_cell_length_a    8.63603
_cell_length_b    4.06177
_cell_length_c    8.66185
_cell_angle_alpha 90.00000
_cell_angle_beta  109.67916
_cell_angle_gamma 90.00000
 
loop_
_space_group_symop_id
_space_group_symop_operation_xyz
1 x,y,z
2 x,-y,z
3 x+1/2,y+1/2,z
4 x+1/2,-y+1/2,z
 
loop_
_atom_site_label
_atom_site_type_symbol
_atom_site_symmetry_multiplicity
_atom_site_Wyckoff_label
_atom_site_fract_x
_atom_site_fract_y
_atom_site_fract_z
_atom_site_occupancy
Co1  Co   2 a 0.00015  0.00000 -0.00029 1.00000
Fe1  Fe   2 a 0.49974  0.00000 0.83974  1.00000
Fe2  Fe   2 a 0.74898  0.00000 0.75909  1.00000
Fe3  Fe   2 a 0.74963  0.00000 0.43391  1.00000
Fe4  Fe   2 a -0.00509 0.00000 0.35288  1.00000
Fe5  Fe   2 a 0.24813  0.00000 0.59540  1.00000
Fe6  Fe   2 a 0.49679  0.00000 0.51362  1.00000
Fe7  Fe   2 a 0.24554  0.00000 -0.08017 1.00000
Fe8  Fe   2 a 0.24373  0.00000 0.26451  1.00000
Fe9  Fe   2 a 0.75214  0.00000 0.08876  1.00000
Fe10 Fe   2 a -0.00120 0.00000 0.67686  1.00000
Ta1  Ta   2 a 0.49794  0.00000 0.17711  1.00000
 
