# CIF file
# This file was generated by FINDSYM
# Harold T. Stokes, Branton J. Campbell, Dorian M. Hatch
# Brigham Young University, Provo, Utah, USA
 
data_findsym-output
_audit_creation_method FINDSYM
 
_symmetry_space_group_name_H-M "C 1 m 1"
_symmetry_Int_Tables_number 8
 
_cell_length_a    12.19865
_cell_length_b    4.06340
_cell_length_c    7.04774
_cell_angle_alpha 90.00000
_cell_angle_beta  125.17893
_cell_angle_gamma 90.00000
 
loop_
_space_group_symop_id
_space_group_symop_operation_xyz
1 x,y,z
2 x,-y,z
3 x+1/2,y+1/2,z
4 x+1/2,-y+1/2,z
 
loop_
_atom_site_label
_atom_site_type_symbol
_atom_site_symmetry_multiplicity
_atom_site_Wyckoff_label
_atom_site_fract_x
_atom_site_fract_y
_atom_site_fract_z
_atom_site_occupancy
Co1  Co   2 a 0.00007  0.00000 0.00016  1.00000
Fe1  Fe   2 a 0.84170  0.00000 0.51389  1.00000
Fe2  Fe   2 a 0.58740  0.00000 0.25430  1.00000
Fe3  Fe   2 a 0.34017  0.00000 -0.00071 1.00000
Fe4  Fe   2 a 0.08775  0.00000 0.75215  1.00000
Fe5  Fe   2 a 0.50994  0.00000 0.50715  1.00000
Fe6  Fe   2 a -0.07712 0.00000 0.25316  1.00000
Fe7  Fe   2 a 0.42303  0.00000 0.75654  1.00000
Fe8  Fe   2 a 0.66855  0.00000 -0.00696 1.00000
Fe9  Fe   2 a 0.75518  0.00000 0.75373  1.00000
Fe10 Fe   2 a 0.17021  0.00000 0.50879  1.00000
Ta1  Ta   2 a 0.25539  0.00000 0.25412  1.00000
 
