# CIF file
# This file was generated by FINDSYM
# Harold T. Stokes, Branton J. Campbell, Dorian M. Hatch
# Brigham Young University, Provo, Utah, USA
 
data_findsym-output
_audit_creation_method FINDSYM
 
_symmetry_space_group_name_H-M "C 1 m 1"
_symmetry_Int_Tables_number 8
 
_cell_length_a    12.19819
_cell_length_b    4.06044
_cell_length_c    5.76976
_cell_angle_alpha 90.00000
_cell_angle_beta  90.05523
_cell_angle_gamma 90.00000
 
loop_
_space_group_symop_id
_space_group_symop_operation_xyz
1 x,y,z
2 x,-y,z
3 x+1/2,y+1/2,z
4 x+1/2,-y+1/2,z
 
loop_
_atom_site_label
_atom_site_type_symbol
_atom_site_symmetry_multiplicity
_atom_site_Wyckoff_label
_atom_site_fract_x
_atom_site_fract_y
_atom_site_fract_z
_atom_site_occupancy
Co1  Co   2 a 0.00002 0.00000 -0.00027 1.00000
Fe1  Fe   2 a 0.34122 0.00000 0.48983  1.00000
Fe2  Fe   2 a 0.50422 0.00000 0.24399  1.00000
Fe3  Fe   2 a 0.83887 0.00000 0.74506  1.00000
Fe4  Fe   2 a 0.00048 0.00000 0.49076  1.00000
Fe5  Fe   2 a 0.50254 0.00000 0.74416  1.00000
Fe6  Fe   2 a 0.34067 0.00000 -0.00105 1.00000
Fe7  Fe   2 a 0.67064 0.00000 0.00410  1.00000
Fe8  Fe   2 a 0.83711 0.00000 0.24413  1.00000
Fe9  Fe   2 a 0.67046 0.00000 0.48518  1.00000
Fe10 Fe   2 a 0.17062 0.00000 0.24429  1.00000
Ta1  Ta   2 a 0.17076 0.00000 0.74473  1.00000
 
