# CIF file
# This file was generated by FINDSYM
# Harold T. Stokes, Branton J. Campbell, Dorian M. Hatch
# Brigham Young University, Provo, Utah, USA
 
data_findsym-output
_audit_creation_method FINDSYM
 
_symmetry_space_group_name_H-M "P 1 21/m 1"
_symmetry_Int_Tables_number 11
 
_cell_length_a    4.85359
_cell_length_b    4.09782
_cell_length_c    7.58594
_cell_angle_alpha 90.00000
_cell_angle_beta  99.69884
_cell_angle_gamma 90.00000
 
loop_
_space_group_symop_id
_space_group_symop_operation_xyz
1 x,y,z
2 -x,y+1/2,-z
3 -x,-y,-z
4 x,-y+1/2,z
 
loop_
_atom_site_label
_atom_site_type_symbol
_atom_site_symmetry_multiplicity
_atom_site_Wyckoff_label
_atom_site_fract_x
_atom_site_fract_y
_atom_site_fract_z
_atom_site_occupancy
Fe1 Fe   2 e 0.12632 0.25000 -0.04573 1.00000
Fe2 Fe   2 e 0.61840 0.25000 0.79800  1.00000
Fe3 Fe   2 e 0.14177 0.25000 0.62887  1.00000
Fe4 Fe   2 e 0.61778 0.25000 0.12086  1.00000
Fe5 Fe   2 e 0.63117 0.25000 0.46250  1.00000
Ta1 Ta   2 e 0.12471 0.25000 0.29157  1.00000
 
