# CIF file
# This file was generated by FINDSYM
# Harold T. Stokes, Branton J. Campbell, Dorian M. Hatch
# Brigham Young University, Provo, Utah, USA
 
data_findsym-output
_audit_creation_method FINDSYM
 
_symmetry_space_group_name_H-M "P 1 21/m 1"
_symmetry_Int_Tables_number 11
 
_cell_length_a    5.05319
_cell_length_b    4.09658
_cell_length_c    7.58115
_cell_angle_alpha 90.00000
_cell_angle_beta  108.96881
_cell_angle_gamma 90.00000
 
loop_
_space_group_symop_id
_space_group_symop_operation_xyz
1 x,y,z
2 -x,y+1/2,-z
3 -x,-y,-z
4 x,-y+1/2,z
 
loop_
_atom_site_label
_atom_site_type_symbol
_atom_site_symmetry_multiplicity
_atom_site_Wyckoff_label
_atom_site_fract_x
_atom_site_fract_y
_atom_site_fract_z
_atom_site_occupancy
Fe1 Fe   2 e 0.88284 0.25000 -0.07790 1.00000
Fe2 Fe   2 e 0.87732 0.25000 0.58492  1.00000
Fe3 Fe   2 e 0.87656 0.25000 0.25193  1.00000
Fe4 Fe   2 e 0.37272 0.25000 -0.08796 1.00000
Fe5 Fe   2 e 0.35809 0.25000 0.58166  1.00000
Ta1 Ta   2 e 0.37766 0.25000 0.25227  1.00000
 
