# CIF file
# This file was generated by FINDSYM
# Harold T. Stokes, Branton J. Campbell, Dorian M. Hatch
# Brigham Young University, Provo, Utah, USA
 
data_findsym-output
_audit_creation_method FINDSYM
 
_symmetry_space_group_name_H-M "P -1"
_symmetry_Int_Tables_number 2
 
_cell_length_a    4.82454
_cell_length_b    4.83419
_cell_length_c    6.54853
_cell_angle_alpha 98.14744
_cell_angle_beta  96.91673
_cell_angle_gamma 95.22010
 
loop_
_space_group_symop_id
_space_group_symop_operation_xyz
1 x,y,z
2 -x,-y,-z
 
loop_
_atom_site_label
_atom_site_type_symbol
_atom_site_symmetry_multiplicity
_atom_site_Wyckoff_label
_atom_site_fract_x
_atom_site_fract_y
_atom_site_fract_z
_atom_site_occupancy
Fe1 Fe   2 i 0.88402 0.21432 0.45734  1.00000
Fe2 Fe   2 i 0.11728 0.46821 0.20701  1.00000
Fe3 Fe   2 i 0.62907 0.61733 0.37291  1.00000
Fe4 Fe   2 i 0.13601 0.12934 0.88016  1.00000
Fe5 Fe   2 i 0.36600 0.69408 -0.04397 1.00000
Ta1 Ta   2 i 0.37109 0.04306 0.28562  1.00000
 
