# CIF file
# This file was generated by FINDSYM
# Harold T. Stokes, Branton J. Campbell, Dorian M. Hatch
# Brigham Young University, Provo, Utah, USA
 
data_findsym-output
_audit_creation_method FINDSYM
 
_symmetry_space_group_name_H-M "P 1 2/m 1"
_symmetry_Int_Tables_number 10
 
_cell_length_a    5.05188
_cell_length_b    4.06567
_cell_length_c    7.22995
_cell_angle_alpha 90.00000
_cell_angle_beta  92.05123
_cell_angle_gamma 90.00000
 
loop_
_space_group_symop_id
_space_group_symop_operation_xyz
1 x,y,z
2 -x,y,-z
3 -x,-y,-z
4 x,-y,z
 
loop_
_atom_site_label
_atom_site_type_symbol
_atom_site_symmetry_multiplicity
_atom_site_Wyckoff_label
_atom_site_fract_x
_atom_site_fract_y
_atom_site_fract_z
_atom_site_occupancy
Fe1 Fe   1 g 0.50000 0.00000 0.50000 1.00000
Fe2 Fe   2 m 0.17579 0.00000 0.82595 1.00000
Fe3 Fe   1 c 0.00000 0.00000 0.50000 1.00000
Fe4 Fe   2 n 0.15336 0.50000 0.34262 1.00000
Fe5 Fe   2 n 0.66257 0.50000 0.33621 1.00000
Fe6 Fe   1 b 0.00000 0.50000 0.00000 1.00000
Fe7 Fe   1 e 0.50000 0.50000 0.00000 1.00000
Ta1 Ta   2 m 0.67857 0.00000 0.82999 1.00000
 
