# CIF file
# This file was generated by FINDSYM
# Harold T. Stokes, Branton J. Campbell, Dorian M. Hatch
# Brigham Young University, Provo, Utah, USA
 
data_findsym-output
_audit_creation_method FINDSYM
 
_symmetry_space_group_name_H-M "P 1 m 1"
_symmetry_Int_Tables_number 6
 
_cell_length_a    6.80801
_cell_length_b    4.10167
_cell_length_c    10.25591
_cell_angle_alpha 90.00000
_cell_angle_beta  100.65633
_cell_angle_gamma 90.00000
 
loop_
_space_group_symop_id
_space_group_symop_operation_xyz
1 x,y,z
2 x,-y,z
 
loop_
_atom_site_label
_atom_site_type_symbol
_atom_site_symmetry_multiplicity
_atom_site_Wyckoff_label
_atom_site_fract_x
_atom_site_fract_y
_atom_site_fract_z
_atom_site_occupancy
Co1  Co   1 b 0.56592  0.50000 0.70284  1.00000
Co2  Co   1 b 0.59808  0.50000 0.21025  1.00000
Co3  Co   1 b 0.23472  0.50000 0.78614  1.00000
Co4  Co   1 b -0.07836 0.50000 0.37630  1.00000
Co5  Co   1 b -0.08040 0.50000 0.13587  1.00000
Co6  Co   1 b 0.23217  0.50000 0.54462  1.00000
Co7  Co   1 b -0.08788 0.50000 0.62146  1.00000
Co8  Co   1 b 0.24110  0.50000 0.03671  1.00000
Co9  Co   1 b 0.23071  0.50000 0.29235  1.00000
Co10 Co   1 b -0.09331 0.50000 0.85452  1.00000
Co11 Co   1 a 0.02554  0.00000 0.75054  1.00000
Co12 Co   1 a 0.02329  0.00000 0.26707  1.00000
Co13 Co   1 a 0.35543  0.00000 0.67686  1.00000
Co14 Co   1 a 0.68239  0.00000 0.82987  1.00000
Co15 Co   1 a 0.34853  0.00000 -0.08277 1.00000
Co16 Co   1 a 0.69808  0.00000 0.10332  1.00000
Co17 Co   1 a 0.69266  0.00000 0.60006  1.00000
Co18 Co   1 a 0.33913  0.00000 0.43618  1.00000
Co19 Co   1 a 0.70788  0.00000 0.34589  1.00000
Co20 Co   1 a 0.01501  0.00000 0.51155  1.00000
Ta1  Ta   1 b 0.58437  0.50000 -0.04041 1.00000
Ta2  Ta   1 b 0.57077  0.50000 0.45177  1.00000
Ta3  Ta   1 a 0.37401  0.00000 0.18683  1.00000
Ta4  Ta   1 a 0.00036  0.00000 0.00045  1.00000
 
