# CIF file
# This file was generated by FINDSYM
# Harold T. Stokes, Branton J. Campbell, Dorian M. Hatch
# Brigham Young University, Provo, Utah, USA
 
data_findsym-output
_audit_creation_method FINDSYM
 
_symmetry_space_group_name_H-M "C 1 m 1"
_symmetry_Int_Tables_number 8
 
_cell_length_a    17.67063
_cell_length_b    5.12536
_cell_length_c    6.40732
_cell_angle_alpha 90.00000
_cell_angle_beta  103.77133
_cell_angle_gamma 90.00000
 
loop_
_space_group_symop_id
_space_group_symop_operation_xyz
1 x,y,z
2 x,-y,z
3 x+1/2,y+1/2,z
4 x+1/2,-y+1/2,z
 
loop_
_atom_site_label
_atom_site_type_symbol
_atom_site_symmetry_multiplicity
_atom_site_Wyckoff_label
_atom_site_fract_x
_atom_site_fract_y
_atom_site_fract_z
_atom_site_occupancy
Co1  Co   4 b 0.62918  0.24956 0.02426 1.00000
Co2  Co   4 b 0.37796  0.23822 0.03087 1.00000
Co3  Co   2 a 0.44939  0.00000 0.34683 1.00000
Co4  Co   2 a 0.13973  0.00000 0.69654 1.00000
Co5  Co   4 b 0.07471  0.25609 0.36230 1.00000
Co6  Co   2 a 0.69421  0.00000 0.36582 1.00000
Co7  Co   4 b 0.02170  0.26197 0.69211 1.00000
Co8  Co   4 b 0.25896  0.24236 0.67874 1.00000
Co9  Co   2 a 0.19249  0.00000 0.34389 1.00000
Co10 Co   2 a 0.87766  0.00000 0.69617 1.00000
Co11 Co   4 b 0.81467  0.26156 0.35704 1.00000
Co12 Co   2 a 0.50741  0.00000 0.03671 1.00000
Co13 Co   2 a 0.63930  0.00000 0.68533 1.00000
Co14 Co   2 a 0.25132  0.00000 0.01667 1.00000
Ta1  Ta   2 a -0.06034 0.00000 0.38422 1.00000
Ta2  Ta   2 a 0.39398  0.00000 0.69274 1.00000
Ta3  Ta   2 a 0.75675  0.00000 0.02155 1.00000
Ta4  Ta   2 a 0.00015  0.00000 0.00045 1.00000
 
