# CIF file
# This file was generated by FINDSYM
# Harold T. Stokes, Branton J. Campbell, Dorian M. Hatch
# Brigham Young University, Provo, Utah, USA
 
data_findsym-output
_audit_creation_method FINDSYM
 
_symmetry_space_group_name_H-M "C 1 m 1"
_symmetry_Int_Tables_number 8
 
_cell_length_a    8.83529
_cell_length_b    5.11090
_cell_length_c    6.40177
_cell_angle_alpha 90.00000
_cell_angle_beta  103.14928
_cell_angle_gamma 90.00000
 
loop_
_space_group_symop_id
_space_group_symop_operation_xyz
1 x,y,z
2 x,-y,z
3 x+1/2,y+1/2,z
4 x+1/2,-y+1/2,z
 
loop_
_atom_site_label
_atom_site_type_symbol
_atom_site_symmetry_multiplicity
_atom_site_Wyckoff_label
_atom_site_fract_x
_atom_site_fract_y
_atom_site_fract_z
_atom_site_occupancy
Co1 Co   4 b 0.13955 0.25681 0.32696  1.00000
Co2 Co   4 b 0.85763 0.25177 0.65191  1.00000
Co3 Co   2 a 0.88329 0.00000 0.32948  1.00000
Co4 Co   4 b 0.24299 0.25631 -0.02703 1.00000
Co5 Co   2 a 0.50008 0.00000 -0.02858 1.00000
Co6 Co   2 a 0.10934 0.00000 0.63728  1.00000
Co7 Co   2 a 0.61233 0.00000 0.65671  1.00000
Ta1 Ta   2 a 0.38309 0.00000 0.30301  1.00000
Ta2 Ta   2 a 0.00001 0.00000 0.00014  1.00000
 
