# CIF file
# This file was generated by FINDSYM
# Harold T. Stokes, Branton J. Campbell, Dorian M. Hatch
# Brigham Young University, Provo, Utah, USA
 
data_findsym-output
_audit_creation_method FINDSYM
 
_symmetry_space_group_name_H-M "P 1 m 1"
_symmetry_Int_Tables_number 6
 
_cell_length_a    6.79458
_cell_length_b    4.09678
_cell_length_c    10.26112
_cell_angle_alpha 90.00000
_cell_angle_beta  100.92236
_cell_angle_gamma 90.00000
 
loop_
_space_group_symop_id
_space_group_symop_operation_xyz
1 x,y,z
2 x,-y,z
 
loop_
_atom_site_label
_atom_site_type_symbol
_atom_site_symmetry_multiplicity
_atom_site_Wyckoff_label
_atom_site_fract_x
_atom_site_fract_y
_atom_site_fract_z
_atom_site_occupancy
Co1  Co   1 b 0.79389 0.50000 0.46915  1.00000
Co2  Co   1 b 0.76918 0.50000 -0.02960 1.00000
Co3  Co   1 b 0.45822 0.50000 0.53935  1.00000
Co4  Co   1 b 0.13668 0.50000 0.14462  1.00000
Co5  Co   1 b 0.13014 0.50000 0.88190  1.00000
Co6  Co   1 b 0.45056 0.50000 0.30311  1.00000
Co7  Co   1 b 0.13248 0.50000 0.39508  1.00000
Co8  Co   1 b 0.44713 0.50000 0.81364  1.00000
Co9  Co   1 b 0.43796 0.50000 0.05220  1.00000
Co10 Co   1 b 0.11505 0.50000 0.63018  1.00000
Co11 Co   1 a 0.68174 0.00000 0.57100  1.00000
Co12 Co   1 a 0.34120 0.00000 -0.08059 1.00000
Co13 Co   1 a 0.01246 0.00000 0.74450  1.00000
Co14 Co   1 a 0.00178 0.00000 0.49138  1.00000
Co15 Co   1 a 0.02688 0.00000 0.25653  1.00000
Co16 Co   1 a 0.66533 0.00000 0.83952  1.00000
Co17 Co   1 a 0.35524 0.00000 0.16847  1.00000
Co18 Co   1 a 0.34480 0.00000 0.40814  1.00000
Co19 Co   1 a 0.65764 0.00000 0.07768  1.00000
Co20 Co   1 a 0.67040 0.00000 0.33643  1.00000
Ta1  Ta   1 b 0.77853 0.50000 0.72331  1.00000
Ta2  Ta   1 b 0.79244 0.50000 0.21757  1.00000
Ta3  Ta   1 a 0.35081 0.00000 0.66312  1.00000
Ta4  Ta   1 a 0.00063 0.00000 -0.00017 1.00000
 
