# CIF file
# This file was generated by FINDSYM
# Harold T. Stokes, Branton J. Campbell, Dorian M. Hatch
# Brigham Young University, Provo, Utah, USA
 
data_findsym-output
_audit_creation_method FINDSYM
 
_symmetry_space_group_name_H-M "P m c 21"
_symmetry_Int_Tables_number 26
 
_cell_length_a    4.08887
_cell_length_b    7.68118
_cell_length_c    8.93665
_cell_angle_alpha 90.00000
_cell_angle_beta  90.00000
_cell_angle_gamma 90.00000
 
loop_
_space_group_symop_id
_space_group_symop_operation_xyz
1 x,y,z
2 -x,-y,z+1/2
3 -x,y,z
4 x,-y,z+1/2
 
loop_
_atom_site_label
_atom_site_type_symbol
_atom_site_symmetry_multiplicity
_atom_site_Wyckoff_label
_atom_site_fract_x
_atom_site_fract_y
_atom_site_fract_z
_atom_site_occupancy
Co1  Co   2 b 0.50000 0.00671 -0.09311 1.00000
Co2  Co   2 a 0.00000 0.67515 0.74141  1.00000
Co3  Co   2 a 0.00000 0.66569 0.25474  1.00000
Co4  Co   2 a 0.00000 0.00624 0.24414  1.00000
Co5  Co   2 a 0.00000 0.15470 0.48044  1.00000
Co6  Co   2 a 0.00000 0.15875 -0.00439 1.00000
Co7  Co   2 b 0.50000 0.50732 0.67836  1.00000
Co8  Co   2 b 0.50000 0.17368 0.15624  1.00000
Co9  Co   2 b 0.50000 0.32906 -0.08086 1.00000
Co10 Co   2 b 0.50000 0.67878 0.89925  1.00000
Ta1  Ta   2 b 0.50000 0.17181 0.65467  1.00000
Ta2  Ta   2 a 0.00000 0.48765 0.50001  1.00000
 
