# CIF file
# This file was generated by FINDSYM
# Harold T. Stokes, Branton J. Campbell, Dorian M. Hatch
# Brigham Young University, Provo, Utah, USA
 
data_findsym-output
_audit_creation_method FINDSYM
 
_symmetry_space_group_name_H-M "C 1 2/m 1"
_symmetry_Int_Tables_number 12
 
_cell_length_a    12.01794
_cell_length_b    5.14051
_cell_length_c    9.76852
_cell_angle_alpha 90.00000
_cell_angle_beta  111.12298
_cell_angle_gamma 90.00000
 
loop_
_space_group_symop_id
_space_group_symop_operation_xyz
1 x,y,z
2 -x,y,-z
3 -x,-y,-z
4 x,-y,z
5 x+1/2,y+1/2,z
6 -x+1/2,y+1/2,-z
7 -x+1/2,-y+1/2,-z
8 x+1/2,-y+1/2,z
 
loop_
_atom_site_label
_atom_site_type_symbol
_atom_site_symmetry_multiplicity
_atom_site_Wyckoff_label
_atom_site_fract_x
_atom_site_fract_y
_atom_site_fract_z
_atom_site_occupancy
Co1 Co   8 j -0.02383 0.26359 0.81771  1.00000
Co2 Co   4 i 0.61700  0.00000 0.03484  1.00000
Co3 Co   8 j 0.19818  0.25670 0.87033  1.00000
Co4 Co   8 j 0.13480  0.25662 0.47073  1.00000
Co5 Co   4 i 0.89420  0.00000 -0.01793 1.00000
Co6 Co   4 i 0.55031  0.00000 0.63968  1.00000
Co7 Co   4 i 0.71700  0.00000 0.30731  1.00000
Ta1 Ta   4 i 0.06312  0.00000 0.65660  1.00000
Ta2 Ta   4 i 0.77933  0.00000 0.69304  1.00000
 
