# CIF file
# This file was generated by FINDSYM
# Harold T. Stokes, Branton J. Campbell, Dorian M. Hatch
# Brigham Young University, Provo, Utah, USA
 
data_findsym-output
_audit_creation_method FINDSYM
 
_symmetry_space_group_name_H-M "P 1 m 1"
_symmetry_Int_Tables_number 6
 
_cell_length_a    7.73367
_cell_length_b    4.09666
_cell_length_c    8.86726
_cell_angle_alpha 90.00000
_cell_angle_beta  90.28586
_cell_angle_gamma 90.00000
 
loop_
_space_group_symop_id
_space_group_symop_operation_xyz
1 x,y,z
2 x,-y,z
 
loop_
_atom_site_label
_atom_site_type_symbol
_atom_site_symmetry_multiplicity
_atom_site_Wyckoff_label
_atom_site_fract_x
_atom_site_fract_y
_atom_site_fract_z
_atom_site_occupancy
Co1  Co   1 a 0.66514  0.00000 0.01617  1.00000
Co2  Co   1 b 0.17113  0.50000 0.41717  1.00000
Co3  Co   1 a 0.49527  0.00000 0.24558  1.00000
Co4  Co   1 b 0.66005  0.50000 0.67213  1.00000
Co5  Co   1 a 0.18230  0.00000 0.75170  1.00000
Co6  Co   1 a 0.17171  0.00000 0.25913  1.00000
Co7  Co   1 b 0.67087  0.50000 0.18301  1.00000
Co8  Co   1 b 0.32389  0.50000 0.17518  1.00000
Co9  Co   1 a 0.33014  0.00000 0.01304  1.00000
Co10 Co   1 a 0.83398  0.00000 0.25239  1.00000
Co11 Co   1 b 0.84438  0.50000 0.41108  1.00000
Co12 Co   1 b 0.00291  0.50000 0.17887  1.00000
Co13 Co   1 a 0.81303  0.00000 0.76304  1.00000
Co14 Co   1 b 0.17357  0.50000 -0.08154 1.00000
Co15 Co   1 b 0.82496  0.50000 -0.07378 1.00000
Co16 Co   1 a 0.32629  0.00000 0.50214  1.00000
Co17 Co   1 b 0.49049  0.50000 0.41309  1.00000
Co18 Co   1 a 0.48989  0.00000 0.74894  1.00000
Co19 Co   1 a 0.00974  0.00000 0.49565  1.00000
Co20 Co   1 b 0.33619  0.50000 0.65799  1.00000
Ta1  Ta   1 b 0.49917  0.50000 -0.07837 1.00000
Ta2  Ta   1 b -0.00875 0.50000 0.67589  1.00000
Ta3  Ta   1 a 0.67099  0.00000 0.50293  1.00000
Ta4  Ta   1 a 0.00064  0.00000 -0.00008 1.00000
 
