# CIF file
# This file was generated by FINDSYM
# Harold T. Stokes, Branton J. Campbell, Dorian M. Hatch
# Brigham Young University, Provo, Utah, USA
 
data_findsym-output
_audit_creation_method FINDSYM
 
_symmetry_space_group_name_H-M "P -1"
_symmetry_Int_Tables_number 2
 
_cell_length_a    5.10176
_cell_length_b    7.32039
_cell_length_c    8.17589
_cell_angle_alpha 106.80515
_cell_angle_beta  99.02518
_cell_angle_gamma 99.54602
 
loop_
_space_group_symop_id
_space_group_symop_operation_xyz
1 x,y,z
2 -x,-y,-z
 
loop_
_atom_site_label
_atom_site_type_symbol
_atom_site_symmetry_multiplicity
_atom_site_Wyckoff_label
_atom_site_fract_x
_atom_site_fract_y
_atom_site_fract_z
_atom_site_occupancy
Co1  Co   2 i 0.03950  0.49013 0.14806  1.00000
Co2  Co   2 i 0.16417  0.24513 -0.09321 1.00000
Co3  Co   2 i 0.42738  0.11842 0.10845  1.00000
Co4  Co   2 i 0.09540  0.27545 0.60877  1.00000
Co5  Co   2 i 0.33518  0.75614 0.08819  1.00000
Co6  Co   2 i 0.47204  0.51386 0.85497  1.00000
Co7  Co   2 i -0.06174 0.12313 0.10965  1.00000
Co8  Co   2 i 0.30271  0.37853 0.36746  1.00000
Co9  Co   2 i 0.29376  0.00579 0.67208  1.00000
Co10 Co   2 i 0.41828  0.72276 0.38823  1.00000
Ta1  Ta   2 i 0.78854  0.34974 0.36717  1.00000
Ta2  Ta   2 i 0.21959  0.01790 0.35766  1.00000
 
