# CIF file
# This file was generated by FINDSYM
# Harold T. Stokes, Branton J. Campbell, Dorian M. Hatch
# Brigham Young University, Provo, Utah, USA
 
data_findsym-output
_audit_creation_method FINDSYM
 
_symmetry_space_group_name_H-M "C 1 2/m 1"
_symmetry_Int_Tables_number 12
 
_cell_length_a    21.91200
_cell_length_b    3.60402
_cell_length_c    7.21765
_cell_angle_alpha 90.00000
_cell_angle_beta  99.52547
_cell_angle_gamma 90.00000
 
loop_
_space_group_symop_id
_space_group_symop_operation_xyz
1 x,y,z
2 -x,y,-z
3 -x,-y,-z
4 x,-y,z
5 x+1/2,y+1/2,z
6 -x+1/2,y+1/2,-z
7 -x+1/2,-y+1/2,-z
8 x+1/2,-y+1/2,z
 
loop_
_atom_site_label
_atom_site_type_symbol
_atom_site_symmetry_multiplicity
_atom_site_Wyckoff_label
_atom_site_fract_x
_atom_site_fract_y
_atom_site_fract_z
_atom_site_occupancy
Co1  Co   4 i 0.16734  0.00000 0.83559  1.00000
Co2  Co   4 i 0.74837  0.00000 0.88227  1.00000
Co3  Co   4 i 0.75192  0.00000 0.36546  1.00000
Co4  Co   2 d 0.00000  0.50000 0.50000  1.00000
Co5  Co   4 i 0.08607  0.00000 0.03412  1.00000
Co6  Co   4 i -0.08663 0.00000 0.44742  1.00000
Co7  Co   2 b 0.00000  0.50000 0.00000  1.00000
Co8  Co   4 i 0.41492  0.00000 0.70716  1.00000
Co9  Co   4 i 0.66854  0.00000 0.59891  1.00000
Co10 Co   4 i 0.58797  0.00000 0.79291  1.00000
Co11 Co   4 i 0.33305  0.00000 -0.07099 1.00000
Ta1  Ta   4 i 0.16715  0.00000 0.33414  1.00000
Ta2  Ta   4 i -0.00188 0.00000 0.74889  1.00000
 
