# CIF file
# This file was generated by FINDSYM
# Harold T. Stokes, Branton J. Campbell, Dorian M. Hatch
# Brigham Young University, Provo, Utah, USA
 
data_findsym-output
_audit_creation_method FINDSYM
 
_symmetry_space_group_name_H-M "P 1 21/m 1"
_symmetry_Int_Tables_number 11
 
_cell_length_a    7.67938
_cell_length_b    4.09109
_cell_length_c    9.28022
_cell_angle_alpha 90.00000
_cell_angle_beta  105.74987
_cell_angle_gamma 90.00000
 
loop_
_space_group_symop_id
_space_group_symop_operation_xyz
1 x,y,z
2 -x,y+1/2,-z
3 -x,-y,-z
4 x,-y+1/2,z
 
loop_
_atom_site_label
_atom_site_type_symbol
_atom_site_symmetry_multiplicity
_atom_site_Wyckoff_label
_atom_site_fract_x
_atom_site_fract_y
_atom_site_fract_z
_atom_site_occupancy
Co1  Co   2 e 0.78302  0.25000 0.33334 1.00000
Co2  Co   2 e 0.53509  0.25000 0.08285 1.00000
Co3  Co   2 e 0.10208  0.25000 0.33414 1.00000
Co4  Co   2 e 0.70753  0.25000 0.60209 1.00000
Co5  Co   2 e -0.04798 0.25000 0.82261 1.00000
Co6  Co   2 e 0.85398  0.25000 0.09633 1.00000
Co7  Co   2 e 0.01762  0.25000 0.57810 1.00000
Co8  Co   2 e 0.60744  0.25000 0.84069 1.00000
Co9  Co   2 e 0.44023  0.25000 0.32400 1.00000
Co10 Co   2 e 0.28243  0.25000 0.83068 1.00000
Ta1  Ta   2 e 0.36473  0.25000 0.57590 1.00000
Ta2  Ta   2 e 0.18430  0.25000 0.07912 1.00000
 
