# CIF file
# This file was generated by FINDSYM
# Harold T. Stokes, Branton J. Campbell, Dorian M. Hatch
# Brigham Young University, Provo, Utah, USA
 
data_findsym-output
_audit_creation_method FINDSYM
 
_symmetry_space_group_name_H-M "P 1 21/m 1"
_symmetry_Int_Tables_number 11
 
_cell_length_a    6.82397
_cell_length_b    4.09773
_cell_length_c    10.25966
_cell_angle_alpha 90.00000
_cell_angle_beta  101.58723
_cell_angle_gamma 90.00000
 
loop_
_space_group_symop_id
_space_group_symop_operation_xyz
1 x,y,z
2 -x,y+1/2,-z
3 -x,-y,-z
4 x,-y+1/2,z
 
loop_
_atom_site_label
_atom_site_type_symbol
_atom_site_symmetry_multiplicity
_atom_site_Wyckoff_label
_atom_site_fract_x
_atom_site_fract_y
_atom_site_fract_z
_atom_site_occupancy
Co1  Co   2 e -0.04959 0.25000 0.55410  1.00000
Co2  Co   2 e 0.28226  0.25000 -0.02430 1.00000
Co3  Co   2 e 0.28145  0.25000 0.72706  1.00000
Co4  Co   2 e 0.59990  0.25000 0.64790  1.00000
Co5  Co   2 e 0.61589  0.25000 0.37888  1.00000
Co6  Co   2 e 0.29555  0.25000 0.21322  1.00000
Co7  Co   2 e -0.07154 0.25000 0.30793  1.00000
Co8  Co   2 e 0.61880  0.25000 0.13633  1.00000
Co9  Co   2 e 0.59937  0.25000 0.89441  1.00000
Co10 Co   2 e -0.06433 0.25000 0.05307  1.00000
Ta1  Ta   2 e -0.06345 0.25000 0.80122  1.00000
Ta2  Ta   2 e 0.28341  0.25000 0.46602  1.00000
 
