# CIF file
# This file was generated by FINDSYM
# Harold T. Stokes, Branton J. Campbell, Dorian M. Hatch
# Brigham Young University, Provo, Utah, USA
 
data_findsym-output
_audit_creation_method FINDSYM
 
_symmetry_space_group_name_H-M "A m m 2"
_symmetry_Int_Tables_number 38
 
_cell_length_a    4.09474
_cell_length_b    15.35052
_cell_length_c    8.93457
_cell_angle_alpha 90.00000
_cell_angle_beta  90.00000
_cell_angle_gamma 90.00000
 
loop_
_space_group_symop_id
_space_group_symop_operation_xyz
1 x,y,z
2 -x,-y,z
3 x,-y,z
4 -x,y,z
5 x,y+1/2,z+1/2
6 -x,-y+1/2,z+1/2
7 x,-y+1/2,z+1/2
8 -x,y+1/2,z+1/2
 
loop_
_atom_site_label
_atom_site_type_symbol
_atom_site_symmetry_multiplicity
_atom_site_Wyckoff_label
_atom_site_fract_x
_atom_site_fract_y
_atom_site_fract_z
_atom_site_occupancy
Co1  Co   4 e 0.50000 0.16159 0.83866  1.00000
Co2  Co   4 e 0.50000 0.74914 0.58915  1.00000
Co3  Co   2 b 0.50000 0.00000 0.31472  1.00000
Co4  Co   4 e 0.50000 0.58844 0.57892  1.00000
Co5  Co   2 b 0.50000 0.00000 0.82077  1.00000
Co6  Co   4 e 0.50000 0.08564 0.59550  1.00000
Co7  Co   4 d 0.00000 0.24534 0.75146  1.00000
Co8  Co   4 d 0.00000 0.16971 0.51561  1.00000
Co9  Co   4 d 0.00000 0.82636 -0.00011 1.00000
Co10 Co   4 d 0.00000 0.08590 0.75265  1.00000
Co11 Co   4 d 0.00000 0.41545 0.74401  1.00000
Ta1  Ta   4 e 0.50000 0.66576 0.84084  1.00000
Ta2  Ta   2 a 0.00000 0.00000 0.49219  1.00000
Ta3  Ta   2 a 0.00000 0.00000 0.00023  1.00000
 
