# CIF file
# This file was generated by FINDSYM
# Harold T. Stokes, Branton J. Campbell, Dorian M. Hatch
# Brigham Young University, Provo, Utah, USA
 
data_findsym-output
_audit_creation_method FINDSYM
 
_symmetry_space_group_name_H-M "C 1 2 1"
_symmetry_Int_Tables_number 5
 
_cell_length_a    15.37986
_cell_length_b    8.87943
_cell_length_c    12.34429
_cell_angle_alpha 90.00000
_cell_angle_beta  90.00022
_cell_angle_gamma 90.00000
 
loop_
_space_group_symop_id
_space_group_symop_operation_xyz
1 x,y,z
2 -x,y,-z
3 x+1/2,y+1/2,z
4 -x+1/2,y+1/2,-z
 
loop_
_atom_site_label
_atom_site_type_symbol
_atom_site_symmetry_multiplicity
_atom_site_Wyckoff_label
_atom_site_fract_x
_atom_site_fract_y
_atom_site_fract_z
_atom_site_occupancy
Co1  Co   4 c 0.08493  0.08422 0.82968  1.00000
Co2  Co   4 c -0.08475 0.08546 0.82971  1.00000
Co3  Co   4 c 0.49955  0.33032 0.82969  1.00000
Co4  Co   4 c 0.75172  0.08419 0.49635  1.00000
Co5  Co   4 c 0.58204  0.08548 0.49636  1.00000
Co6  Co   4 c 0.16624  0.33032 0.49635  1.00000
Co7  Co   4 c 0.58161  0.08419 0.83698  1.00000
Co8  Co   4 c 0.16707  0.33032 0.83698  1.00000
Co9  Co   4 c 0.75124  0.08548 0.83699  1.00000
Co10 Co   4 c 0.24731  0.24732 0.00001  1.00000
Co11 Co   2 a 0.00000  0.50537 0.00000  1.00000
Co12 Co   4 c -0.08602 0.24730 0.66668  1.00000
Co13 Co   4 c 0.41935  0.24731 0.66667  1.00000
Co14 Co   4 c 0.16665  0.00539 0.66670  1.00000
Co15 Co   4 c 0.08174  0.08174 0.50000  1.00000
Co16 Co   2 b 0.00000  0.83651 0.50000  1.00000
Co17 Co   4 c 0.74845  0.08174 0.16668  1.00000
Co18 Co   4 c 0.58493  0.08174 0.16667  1.00000
Co19 Co   4 c 0.16669  0.33652 0.16667  1.00000
Co20 Co   4 c 0.75624  0.25048 0.66828  1.00000
Co21 Co   4 c 0.49664  0.00912 0.66827  1.00000
Co22 Co   4 c 0.24711  0.24040 0.66826  1.00000
Co23 Co   4 c 0.42291  0.25048 0.33494  1.00000
Co24 Co   4 c 0.16333  0.00911 0.33498  1.00000
Co25 Co   4 c -0.08622 0.24041 0.33496  1.00000
Co26 Co   4 c -0.08958 0.25047 -0.00160 1.00000
Co27 Co   4 c 0.41955  0.24040 -0.00160 1.00000
Co28 Co   4 c 0.17002  0.00913 -0.00165 1.00000
Co29 Co   4 c -0.00003 0.00000 0.66843  1.00000
Co30 Co   4 c 0.66667  0.00000 0.33509  1.00000
Co31 Co   4 c 0.66667  0.00000 -0.00176 1.00000
Ta1  Ta   2 a 0.00000  0.00000 0.00000  1.00000
Ta2  Ta   4 c 0.66665  0.00001 0.66667  1.00000
Ta3  Ta   4 c 0.33194  0.33194 0.49998  1.00000
Ta4  Ta   2 b 0.00000  0.33612 0.50000  1.00000
Ta5  Ta   4 c -0.00134 0.33194 0.16667  1.00000
Ta6  Ta   4 c 0.33476  0.33201 0.16668  1.00000
Ta7  Ta   4 c 0.66670  0.33605 0.16666  1.00000
 
