# CIF file
# This file was generated by FINDSYM
# Harold T. Stokes, Branton J. Campbell, Dorian M. Hatch
# Brigham Young University, Provo, Utah, USA
 
data_findsym-output
_audit_creation_method FINDSYM
 
_symmetry_space_group_name_H-M "P -3"
_symmetry_Int_Tables_number 147
 
_cell_length_a    7.06510
_cell_length_b    7.06510
_cell_length_c    15.01541
_cell_angle_alpha 90.00000
_cell_angle_beta  90.00000
_cell_angle_gamma 120.00000
 
loop_
_space_group_symop_id
_space_group_symop_operation_xyz
1 x,y,z
2 -y,x-y,z
3 -x+y,-x,z
4 -x,-y,-z
5 y,-x+y,-z
6 x-y,x,-z
 
loop_
_atom_site_label
_atom_site_type_symbol
_atom_site_symmetry_multiplicity
_atom_site_Wyckoff_label
_atom_site_fract_x
_atom_site_fract_y
_atom_site_fract_z
_atom_site_occupancy
Fe1  Fe   2 c 0.00000  0.00000 0.16327  1.00000
Fe2  Fe   2 d 0.33333  0.66667 0.82979  1.00000
Fe3  Fe   2 d 0.33333  0.66667 0.50339  1.00000
Fe4  Fe   6 g 0.66592  0.00751 0.27504  1.00000
Fe5  Fe   6 g -0.00076 0.67428 -0.05834 1.00000
Fe6  Fe   6 g 0.66742  0.65906 0.39162  1.00000
Fe7  Fe   6 g -0.00057 0.66583 0.11203  1.00000
Fe8  Fe   6 g 0.33284  0.33259 0.77860  1.00000
Fe9  Fe   6 g 0.33386  0.00077 0.55461  1.00000
Fe10 Fe   1 b 0.00000  0.00000 0.50000  1.00000
Fe11 Fe   2 d 0.33333  0.66667 0.16663  1.00000
Fe12 Fe   1 a 0.00000  0.00000 0.00000  1.00000
Fe13 Fe   2 d 0.33333  0.66667 0.66660  1.00000
Ta1  Ta   2 c 0.00000  0.00000 0.66788  1.00000
Ta2  Ta   2 d 0.33333  0.66667 0.33457  1.00000
Ta3  Ta   2 d 0.33333  0.66667 -0.00129 1.00000
 
