# CIF file
# This file was generated by FINDSYM
# Harold T. Stokes, Branton J. Campbell, Dorian M. Hatch
# Brigham Young University, Provo, Utah, USA
 
data_findsym-output
_audit_creation_method FINDSYM
 
_symmetry_space_group_name_H-M "P 1"
_symmetry_Int_Tables_number 1
 
_cell_length_a    2.64377
_cell_length_b    4.28534
_cell_length_c    6.02771
_cell_angle_alpha 71.71776
_cell_angle_beta  84.10215
_cell_angle_gamma 77.35655
 
loop_
_space_group_symop_id
_space_group_symop_operation_xyz
1 x,y,z
 
loop_
_atom_site_label
_atom_site_type_symbol
_atom_site_symmetry_multiplicity
_atom_site_Wyckoff_label
_atom_site_fract_x
_atom_site_fract_y
_atom_site_fract_z
_atom_site_occupancy
Fe1 Fe   1 a 0.08185  0.89457 0.62731  1.00000
Fe2 Fe   1 a -0.04694 0.53854 0.38889  1.00000
Fe3 Fe   1 a 0.64319  0.61818 0.00508  1.00000
Fe4 Fe   1 a 0.41137  0.09116 0.23725  1.00000
Fe5 Fe   1 a 0.42986  0.30166 0.76822  1.00000
B1  B    1 a 0.00014  0.00013 -0.00029 1.00000
 
