# CIF file
# This file was generated by FINDSYM
# Harold T. Stokes, Branton J. Campbell, Dorian M. Hatch
# Brigham Young University, Provo, Utah, USA
 
data_findsym-output
_audit_creation_method FINDSYM
 
_symmetry_space_group_name_H-M "C 1 m 1"
_symmetry_Int_Tables_number 8
 
_cell_length_a    4.28688
_cell_length_b    11.50526
_cell_length_c    2.68776
_cell_angle_alpha 90.00000
_cell_angle_beta  106.83449
_cell_angle_gamma 90.00000
 
loop_
_space_group_symop_id
_space_group_symop_operation_xyz
1 x,y,z
2 x,-y,z
3 x+1/2,y+1/2,z
4 x+1/2,-y+1/2,z
 
loop_
_atom_site_label
_atom_site_type_symbol
_atom_site_symmetry_multiplicity
_atom_site_Wyckoff_label
_atom_site_fract_x
_atom_site_fract_y
_atom_site_fract_z
_atom_site_occupancy
Fe1 Fe   4 b 0.25948  0.19050 0.06732 1.00000
Fe2 Fe   4 b 0.29864  0.38631 0.40361 1.00000
Fe3 Fe   2 a 0.38842  0.00000 0.68089 1.00000
B1  B    2 a -0.00111 0.00000 0.00246 1.00000
 
