# CIF file
# This file was generated by FINDSYM
# Harold T. Stokes, Branton J. Campbell, Dorian M. Hatch
# Brigham Young University, Provo, Utah, USA
 
data_findsym-output
_audit_creation_method FINDSYM
 
_symmetry_space_group_name_H-M "C 1 m 1"
_symmetry_Int_Tables_number 8
 
_cell_length_a    7.93072
_cell_length_b    2.68279
_cell_length_c    5.91446
_cell_angle_alpha 90.00000
_cell_angle_beta  125.06256
_cell_angle_gamma 90.00000
 
loop_
_space_group_symop_id
_space_group_symop_operation_xyz
1 x,y,z
2 x,-y,z
3 x+1/2,y+1/2,z
4 x+1/2,-y+1/2,z
 
loop_
_atom_site_label
_atom_site_type_symbol
_atom_site_symmetry_multiplicity
_atom_site_Wyckoff_label
_atom_site_fract_x
_atom_site_fract_y
_atom_site_fract_z
_atom_site_occupancy
Fe1 Fe   2 a 0.44535 0.00000 0.69806  1.00000
Fe2 Fe   2 a 0.28480 0.00000 -0.03365 1.00000
Fe3 Fe   2 a 0.71054 0.00000 0.25922  1.00000
Fe4 Fe   2 a 0.06364 0.00000 0.44387  1.00000
B1  B    2 a 0.00020 0.00000 0.00042  1.00000
 
