# CIF file
# This file was generated by FINDSYM
# Harold T. Stokes, Branton J. Campbell, Dorian M. Hatch
# Brigham Young University, Provo, Utah, USA
 
data_findsym-output
_audit_creation_method FINDSYM
 
_symmetry_space_group_name_H-M "C 1 m 1"
_symmetry_Int_Tables_number 8
 
_cell_length_a    12.33901
_cell_length_b    2.88040
_cell_length_c    4.19427
_cell_angle_alpha 90.00000
_cell_angle_beta  100.82173
_cell_angle_gamma 90.00000
 
loop_
_space_group_symop_id
_space_group_symop_operation_xyz
1 x,y,z
2 x,-y,z
3 x+1/2,y+1/2,z
4 x+1/2,-y+1/2,z
 
loop_
_atom_site_label
_atom_site_type_symbol
_atom_site_symmetry_multiplicity
_atom_site_Wyckoff_label
_atom_site_fract_x
_atom_site_fract_y
_atom_site_fract_z
_atom_site_occupancy
Fe1 Fe   2 a 0.71783  0.00000 0.57649 1.00000
Fe2 Fe   2 a 0.38235  0.00000 0.66038 1.00000
Fe3 Fe   2 a 0.04208  0.00000 0.75396 1.00000
Fe4 Fe   2 a 0.24466  0.00000 0.07310 1.00000
Fe5 Fe   2 a -0.09461 0.00000 0.17238 1.00000
S1  S    2 a 0.09428  0.00000 0.28981 1.00000
 
