# CIF file
# This file was generated by FINDSYM
# Harold T. Stokes, Branton J. Campbell, Dorian M. Hatch
# Brigham Young University, Provo, Utah, USA
 
data_findsym-output
_audit_creation_method FINDSYM
 
_symmetry_space_group_name_H-M "A m m 2"
_symmetry_Int_Tables_number 38
 
_cell_length_a    2.95908
_cell_length_b    2.92442
_cell_length_c    16.39056
_cell_angle_alpha 90.00000
_cell_angle_beta  90.00000
_cell_angle_gamma 90.00000
 
loop_
_space_group_symop_id
_space_group_symop_operation_xyz
1 x,y,z
2 -x,-y,z
3 x,-y,z
4 -x,y,z
5 x,y+1/2,z+1/2
6 -x,-y+1/2,z+1/2
7 x,-y+1/2,z+1/2
8 -x,y+1/2,z+1/2
 
loop_
_atom_site_label
_atom_site_type_symbol
_atom_site_symmetry_multiplicity
_atom_site_Wyckoff_label
_atom_site_fract_x
_atom_site_fract_y
_atom_site_fract_z
_atom_site_occupancy
Fe1 Fe   2 b 0.50000 0.00000 0.35085  1.00000
Fe2 Fe   2 b 0.50000 0.00000 0.51706  1.00000
Fe3 Fe   2 a 0.00000 0.00000 0.76734  1.00000
Fe4 Fe   2 a 0.00000 0.00000 0.10885  1.00000
Fe5 Fe   2 a 0.00000 0.00000 -0.06468 1.00000
S1  S    2 b 0.50000 0.00000 0.66669  1.00000
 
