# CIF file
# This file was generated by FINDSYM
# Harold T. Stokes, Branton J. Campbell, Dorian M. Hatch
# Brigham Young University, Provo, Utah, USA
 
data_findsym-output
_audit_creation_method FINDSYM
 
_symmetry_space_group_name_H-M "P 1 m 1"
_symmetry_Int_Tables_number 6
 
_cell_length_a    4.82846
_cell_length_b    4.06614
_cell_length_c    5.03376
_cell_angle_alpha 90.00000
_cell_angle_beta  100.37711
_cell_angle_gamma 90.00000
 
loop_
_space_group_symop_id
_space_group_symop_operation_xyz
1 x,y,z
2 x,-y,z
 
loop_
_atom_site_label
_atom_site_type_symbol
_atom_site_symmetry_multiplicity
_atom_site_Wyckoff_label
_atom_site_fract_x
_atom_site_fract_y
_atom_site_fract_z
_atom_site_occupancy
Co1 Co   1 a 0.00011  0.00000 0.00008 1.00000
Fe1 Fe   1 b 0.74816  0.50000 0.11877 1.00000
Fe2 Fe   1 b 0.75909  0.50000 0.63199 1.00000
Fe3 Fe   1 a -0.00689 0.00000 0.51225 1.00000
Fe4 Fe   1 b 0.25489  0.50000 0.87620 1.00000
Fe5 Fe   1 a 0.51345  0.00000 0.24323 1.00000
Fe6 Fe   1 a 0.50658  0.00000 0.75214 1.00000
Ta1 Ta   1 b 0.25431  0.50000 0.37623 1.00000
 
