# CIF file
# This file was generated by FINDSYM
# Harold T. Stokes, Branton J. Campbell, Dorian M. Hatch
# Brigham Young University, Provo, Utah, USA
 
data_findsym-output
_audit_creation_method FINDSYM
 
_symmetry_space_group_name_H-M "C 1 m 1"
_symmetry_Int_Tables_number 8
 
_cell_length_a    5.02344
_cell_length_b    8.18846
_cell_length_c    4.82450
_cell_angle_alpha 90.00000
_cell_angle_beta  100.36082
_cell_angle_gamma 90.00000
 
loop_
_space_group_symop_id
_space_group_symop_operation_xyz
1 x,y,z
2 x,-y,z
3 x+1/2,y+1/2,z
4 x+1/2,-y+1/2,z
 
loop_
_atom_site_label
_atom_site_type_symbol
_atom_site_symmetry_multiplicity
_atom_site_Wyckoff_label
_atom_site_fract_x
_atom_site_fract_y
_atom_site_fract_z
_atom_site_occupancy
Co1 Co   2 a 0.00019 0.00000 -0.00003 1.00000
Fe1 Fe   4 b 0.61745 0.25499 0.74619  1.00000
Fe2 Fe   4 b 0.37429 0.24581 0.23311  1.00000
Fe3 Fe   2 a 0.24646 0.00000 0.48947  1.00000
Fe4 Fe   2 a 0.49041 0.00000 -0.02201 1.00000
Ta1 Ta   2 a 0.74587 0.00000 0.48923  1.00000
 
