# CIF file
# This file was generated by FINDSYM
# Harold T. Stokes, Branton J. Campbell, Dorian M. Hatch
# Brigham Young University, Provo, Utah, USA
 
data_findsym-output
_audit_creation_method FINDSYM
 
_symmetry_space_group_name_H-M "P 1"
_symmetry_Int_Tables_number 1
 
_cell_length_a    4.80429
_cell_length_b    4.80446
_cell_length_c    4.82247
_cell_angle_alpha 95.36894
_cell_angle_beta  95.45440
_cell_angle_gamma 116.96586
 
loop_
_space_group_symop_id
_space_group_symop_operation_xyz
1 x,y,z
 
loop_
_atom_site_label
_atom_site_type_symbol
_atom_site_symmetry_multiplicity
_atom_site_Wyckoff_label
_atom_site_fract_x
_atom_site_fract_y
_atom_site_fract_z
_atom_site_occupancy
Co1 Co   1 a -0.00004 0.00002 0.00013 1.00000
Fe1 Fe   1 a 0.88201  0.37256 0.74282 1.00000
Fe2 Fe   1 a 0.76346  0.74551 0.48656 1.00000
Fe3 Fe   1 a 0.63755  0.12807 0.25455 1.00000
Fe4 Fe   1 a 0.25534  0.25570 0.48624 1.00000
Fe5 Fe   1 a 0.12761  0.62004 0.23320 1.00000
Fe6 Fe   1 a 0.50912  0.49128 0.00018 1.00000
Ta1 Ta   1 a 0.38155  0.87358 0.74342 1.00000
 
