# CIF file
# This file was generated by FINDSYM
# Harold T. Stokes, Branton J. Campbell, Dorian M. Hatch
# Brigham Young University, Provo, Utah, USA
 
data_findsym-output
_audit_creation_method FINDSYM
 
_symmetry_space_group_name_H-M "C 1 m 1"
_symmetry_Int_Tables_number 8
 
_cell_length_a    12.27438
_cell_length_b    3.94037
_cell_length_c    4.97132
_cell_angle_alpha 90.00000
_cell_angle_beta  108.17665
_cell_angle_gamma 90.00000
 
loop_
_space_group_symop_id
_space_group_symop_operation_xyz
1 x,y,z
2 x,-y,z
3 x+1/2,y+1/2,z
4 x+1/2,-y+1/2,z
 
loop_
_atom_site_label
_atom_site_type_symbol
_atom_site_symmetry_multiplicity
_atom_site_Wyckoff_label
_atom_site_fract_x
_atom_site_fract_y
_atom_site_fract_z
_atom_site_occupancy
Fe1 Fe   2 a 0.18844  0.00000 0.75779  1.00000
Fe2 Fe   2 a -0.01607 0.00000 -0.01295 1.00000
Fe3 Fe   2 a -0.02048 0.00000 0.49161  1.00000
Fe4 Fe   2 a 0.58786  0.00000 0.85369  1.00000
Fe5 Fe   2 a 0.77101  0.00000 0.57948  1.00000
Fe6 Fe   2 a 0.18778  0.00000 0.24845  1.00000
Ge1 Ge   2 a 0.38425  0.00000 0.65346  1.00000
Ge2 Ge   2 a 0.79671  0.00000 0.09713  1.00000
Ge3 Ge   2 a 0.56349  0.00000 0.33135  1.00000
 
