# CIF file
# This file was generated by FINDSYM
# Harold T. Stokes, Branton J. Campbell, Dorian M. Hatch
# Brigham Young University, Provo, Utah, USA
 
data_findsym-output
_audit_creation_method FINDSYM
 
_symmetry_space_group_name_H-M "P 1 21/m 1"
_symmetry_Int_Tables_number 11
 
_cell_length_a    4.93778
_cell_length_b    3.94887
_cell_length_c    12.03923
_cell_angle_alpha 90.00000
_cell_angle_beta  98.86482
_cell_angle_gamma 90.00000
 
loop_
_space_group_symop_id
_space_group_symop_operation_xyz
1 x,y,z
2 -x,y+1/2,-z
3 -x,-y,-z
4 x,-y+1/2,z
 
loop_
_atom_site_label
_atom_site_type_symbol
_atom_site_symmetry_multiplicity
_atom_site_Wyckoff_label
_atom_site_fract_x
_atom_site_fract_y
_atom_site_fract_z
_atom_site_occupancy
Fe1 Fe   2 e -0.04743 0.25000 0.75441  1.00000
Fe2 Fe   2 e 0.44525  0.25000 0.74556  1.00000
Fe3 Fe   2 e 0.13017  0.25000 0.54020  1.00000
Fe4 Fe   2 e 0.89578  0.25000 -0.04788 1.00000
Fe5 Fe   2 e 0.39799  0.25000 -0.04912 1.00000
Fe6 Fe   2 e 0.80944  0.25000 0.14429  1.00000
Ge1 Ge   2 e 0.64028  0.25000 0.56968  1.00000
Ge2 Ge   2 e 0.84505  0.25000 0.34265  1.00000
Ge3 Ge   2 e 0.31232  0.25000 0.15762  1.00000
 
