# CIF file
# This file was generated by FINDSYM
# Harold T. Stokes, Branton J. Campbell, Dorian M. Hatch
# Brigham Young University, Provo, Utah, USA
 
data_findsym-output
_audit_creation_method FINDSYM
 
_symmetry_space_group_name_H-M "P 1 m 1"
_symmetry_Int_Tables_number 6
 
_cell_length_a    4.96076
_cell_length_b    3.93650
_cell_length_c    11.78504
_cell_angle_alpha 90.00000
_cell_angle_beta  99.01617
_cell_angle_gamma 90.00000
 
loop_
_space_group_symop_id
_space_group_symop_operation_xyz
1 x,y,z
2 x,-y,z
 
loop_
_atom_site_label
_atom_site_type_symbol
_atom_site_symmetry_multiplicity
_atom_site_Wyckoff_label
_atom_site_fract_x
_atom_site_fract_y
_atom_site_fract_z
_atom_site_occupancy
Fe1  Fe   1 b 0.56870  0.50000 0.52516  1.00000
Fe2  Fe   1 b 0.12482  0.50000 0.31903  1.00000
Fe3  Fe   1 a 0.34639  0.00000 0.42025  1.00000
Fe4  Fe   1 a 0.41576  0.00000 0.21649  1.00000
Fe5  Fe   1 b 0.18564  0.50000 0.11541  1.00000
Fe6  Fe   1 a 0.85496  0.00000 0.61748  1.00000
Fe7  Fe   1 a 0.17133  0.00000 0.81231  1.00000
Fe8  Fe   1 a 0.67471  0.00000 0.81579  1.00000
Fe9  Fe   1 b 0.07377  0.50000 0.52887  1.00000
Fe10 Fe   1 b 0.61656  0.50000 0.32023  1.00000
Fe11 Fe   1 a 0.48270  0.00000 0.00999  1.00000
Fe12 Fe   1 a -0.07935 0.00000 0.20664  1.00000
Ge1  Ge   1 b 0.44353  0.50000 0.87895  1.00000
Ge2  Ge   1 a 0.36085  0.00000 0.63165  1.00000
Ge3  Ge   1 a 0.84482  0.00000 0.41031  1.00000
Ge4  Ge   1 b 0.89462  0.50000 0.74164  1.00000
Ge5  Ge   1 b 0.67983  0.50000 0.11912  1.00000
Ge6  Ge   1 a -0.00613 0.00000 -0.00242 1.00000
 
