# CIF file
# This file was generated by FINDSYM
# Harold T. Stokes, Branton J. Campbell, Dorian M. Hatch
# Brigham Young University, Provo, Utah, USA
 
data_findsym-output
_audit_creation_method FINDSYM
 
_symmetry_space_group_name_H-M "P m m 2"
_symmetry_Int_Tables_number 25
 
_cell_length_a    4.09397
_cell_length_b    4.97713
_cell_length_c    11.33347
_cell_angle_alpha 90.00000
_cell_angle_beta  90.00000
_cell_angle_gamma 90.00000
 
loop_
_space_group_symop_id
_space_group_symop_operation_xyz
1 x,y,z
2 -x,-y,z
3 -x,y,z
4 x,-y,z
 
loop_
_atom_site_label
_atom_site_type_symbol
_atom_site_symmetry_multiplicity
_atom_site_Wyckoff_label
_atom_site_fract_x
_atom_site_fract_y
_atom_site_fract_z
_atom_site_occupancy
Fe1 Fe   1 b 0.00000 0.50000 -0.06614 1.00000
Fe2 Fe   1 a 0.00000 0.00000 0.34215  1.00000
Fe3 Fe   1 d 0.50000 0.50000 0.23351  1.00000
Fe4 Fe   1 d 0.50000 0.50000 0.62040  1.00000
Fe5 Fe   2 g 0.00000 0.25010 0.13348  1.00000
Fe6 Fe   2 g 0.00000 0.75768 0.54428  1.00000
Fe7 Fe   2 h 0.50000 0.24672 0.82993  1.00000
Fe8 Fe   2 h 0.50000 0.23689 0.42085  1.00000
Ge1 Ge   1 b 0.00000 0.50000 0.73135  1.00000
Ge2 Ge   1 c 0.50000 0.00000 0.20982  1.00000
Ge3 Ge   1 b 0.00000 0.50000 0.35045  1.00000
Ge4 Ge   1 a 0.00000 0.00000 -0.07203 1.00000
Ge5 Ge   1 c 0.50000 0.00000 0.63226  1.00000
Ge6 Ge   1 d 0.50000 0.50000 0.02926  1.00000
 
