# CIF file
# This file was generated by FINDSYM
# Harold T. Stokes, Branton J. Campbell, Dorian M. Hatch
# Brigham Young University, Provo, Utah, USA
 
data_findsym-output
_audit_creation_method FINDSYM
 
_symmetry_space_group_name_H-M "P -1"
_symmetry_Int_Tables_number 2
 
_cell_length_a    6.24469
_cell_length_b    6.26968
_cell_length_c    6.78539
_cell_angle_alpha 78.64949
_cell_angle_beta  80.40697
_cell_angle_gamma 61.97997
 
loop_
_space_group_symop_id
_space_group_symop_operation_xyz
1 x,y,z
2 -x,-y,-z
 
loop_
_atom_site_label
_atom_site_type_symbol
_atom_site_symmetry_multiplicity
_atom_site_Wyckoff_label
_atom_site_fract_x
_atom_site_fract_y
_atom_site_fract_z
_atom_site_occupancy
Fe1 Fe   2 i 0.87611  0.20582  0.41794  1.00000
Fe2 Fe   1 g 0.00000  0.50000  0.50000  1.00000
Fe3 Fe   2 i -0.04992 0.86331  -0.06599 1.00000
Fe4 Fe   2 i 0.77781  -0.09466 0.29959  1.00000
Fe5 Fe   2 i 0.58890  0.30613  0.11368  1.00000
Fe6 Fe   1 d 0.50000  0.00000  0.00000  1.00000
Fe7 Fe   2 i 0.55316  0.66081  0.51591  1.00000
Ge1 Ge   2 i 0.78460  0.57049  0.14922  1.00000
Ge2 Ge   2 i 0.69036  0.89982  0.66695  1.00000
Ge3 Ge   2 i 0.22881  0.69192  0.23174  1.00000
 
