# CIF file
# This file was generated by FINDSYM
# Harold T. Stokes, Branton J. Campbell, Dorian M. Hatch
# Brigham Young University, Provo, Utah, USA
 
data_findsym-output
_audit_creation_method FINDSYM
 
_symmetry_space_group_name_H-M "P 1 21/m 1"
_symmetry_Int_Tables_number 11
 
_cell_length_a    4.94506
_cell_length_b    3.94052
_cell_length_c    11.91090
_cell_angle_alpha 90.00000
_cell_angle_beta  96.59711
_cell_angle_gamma 90.00000
 
loop_
_space_group_symop_id
_space_group_symop_operation_xyz
1 x,y,z
2 -x,y+1/2,-z
3 -x,-y,-z
4 x,-y+1/2,z
 
loop_
_atom_site_label
_atom_site_type_symbol
_atom_site_symmetry_multiplicity
_atom_site_Wyckoff_label
_atom_site_fract_x
_atom_site_fract_y
_atom_site_fract_z
_atom_site_occupancy
Fe1 Fe   2 e 0.28179  0.25000 0.24869 1.00000
Fe2 Fe   2 e 0.77850  0.25000 0.25117 1.00000
Fe3 Fe   2 e 0.61441  0.25000 0.46042 1.00000
Fe4 Fe   2 e 0.84697  0.25000 0.04921 1.00000
Fe5 Fe   2 e 0.34846  0.25000 0.04791 1.00000
Fe6 Fe   2 e 0.45236  0.25000 0.85440 1.00000
Ge1 Ge   2 e 0.10139  0.25000 0.43150 1.00000
Ge2 Ge   2 e 0.46533  0.25000 0.65603 1.00000
Ge3 Ge   2 e -0.04565 0.25000 0.84359 1.00000
 
