# CIF file
# This file was generated by FINDSYM
# Harold T. Stokes, Branton J. Campbell, Dorian M. Hatch
# Brigham Young University, Provo, Utah, USA
 
data_findsym-output
_audit_creation_method FINDSYM
 
_symmetry_space_group_name_H-M "I m a 2"
_symmetry_Int_Tables_number 46
 
_cell_length_a    6.57761
_cell_length_b    10.85059
_cell_length_c    6.37911
_cell_angle_alpha 90.00000
_cell_angle_beta  90.00000
_cell_angle_gamma 90.00000
 
loop_
_space_group_symop_id
_space_group_symop_operation_xyz
1 x,y,z
2 -x,-y,z
3 -x+1/2,y,z
4 x+1/2,-y,z
5 x+1/2,y+1/2,z+1/2
6 -x+1/2,-y+1/2,z+1/2
7 -x,y+1/2,z+1/2
8 x,-y+1/2,z+1/2
 
loop_
_atom_site_label
_atom_site_type_symbol
_atom_site_symmetry_multiplicity
_atom_site_Wyckoff_label
_atom_site_fract_x
_atom_site_fract_y
_atom_site_fract_z
_atom_site_occupancy
Fe1 Fe   4 a 0.00000  0.00000 -0.02230 1.00000
Fe2 Fe   4 b 0.25000  0.51057 0.81460  1.00000
Fe3 Fe   8 c 0.44731  0.37241 0.09042  1.00000
Fe4 Fe   4 b 0.25000  0.31816 0.42181  1.00000
Fe5 Fe   4 b 0.25000  0.77903 -0.04794 1.00000
Ge1 Ge   4 b 0.25000  0.54118 0.21373  1.00000
Ge2 Ge   8 c -0.01268 0.83136 0.22678  1.00000
 
