# CIF file
# This file was generated by FINDSYM
# Harold T. Stokes, Branton J. Campbell, Dorian M. Hatch
# Brigham Young University, Provo, Utah, USA
 
data_findsym-output
_audit_creation_method FINDSYM
 
_symmetry_space_group_name_H-M "C 1 2/m 1"
_symmetry_Int_Tables_number 12
 
_cell_length_a    8.68388
_cell_length_b    5.11020
_cell_length_c    10.46390
_cell_angle_alpha 90.00000
_cell_angle_beta  92.34866
_cell_angle_gamma 90.00000
 
loop_
_space_group_symop_id
_space_group_symop_operation_xyz
1 x,y,z
2 -x,y,-z
3 -x,-y,-z
4 x,-y,z
5 x+1/2,y+1/2,z
6 -x+1/2,y+1/2,-z
7 -x+1/2,-y+1/2,-z
8 x+1/2,-y+1/2,z
 
loop_
_atom_site_label
_atom_site_type_symbol
_atom_site_symmetry_multiplicity
_atom_site_Wyckoff_label
_atom_site_fract_x
_atom_site_fract_y
_atom_site_fract_z
_atom_site_occupancy
Fe1 Fe   8 j 0.25904  0.25458 0.69116 1.00000
Fe2 Fe   4 i 0.51491  0.00000 0.69397 1.00000
Fe3 Fe   8 j -0.09862 0.25327 0.10057 1.00000
Fe4 Fe   4 i 0.15157  0.00000 0.10162 1.00000
Ge1 Ge   4 i 0.33372  0.00000 0.50270 1.00000
Ge2 Ge   4 i 0.01074  0.00000 0.69918 1.00000
Ge3 Ge   4 i 0.65417  0.00000 0.10867 1.00000
 
