# CIF file
# This file was generated by FINDSYM
# Harold T. Stokes, Branton J. Campbell, Dorian M. Hatch
# Brigham Young University, Provo, Utah, USA
 
data_findsym-output
_audit_creation_method FINDSYM
 
_symmetry_space_group_name_H-M "C 1 m 1"
_symmetry_Int_Tables_number 8
 
_cell_length_a    13.25367
_cell_length_b    3.96976
_cell_length_c    11.77417
_cell_angle_alpha 90.00000
_cell_angle_beta  96.58723
_cell_angle_gamma 90.00000
 
loop_
_space_group_symop_id
_space_group_symop_operation_xyz
1 x,y,z
2 x,-y,z
3 x+1/2,y+1/2,z
4 x+1/2,-y+1/2,z
 
loop_
_atom_site_label
_atom_site_type_symbol
_atom_site_symmetry_multiplicity
_atom_site_Wyckoff_label
_atom_site_fract_x
_atom_site_fract_y
_atom_site_fract_z
_atom_site_occupancy
Fe1  Fe   2 a 0.31234  0.00000 0.10599  1.00000
Fe2  Fe   2 a 0.12507  0.00000 0.07229  1.00000
Fe3  Fe   2 a -0.00680 0.00000 0.45122  1.00000
Fe4  Fe   2 a 0.79813  0.00000 0.43308  1.00000
Fe5  Fe   2 a 0.63868  0.00000 0.78570  1.00000
Fe6  Fe   2 a 0.68184  0.00000 0.18508  1.00000
Fe7  Fe   2 a 0.82798  0.00000 0.81916  1.00000
Fe8  Fe   2 a 0.49883  0.00000 0.14789  1.00000
Fe9  Fe   2 a 0.24411  0.00000 0.29502  1.00000
Fe10 Fe   2 a 0.03332  0.00000 0.83307  1.00000
Fe11 Fe   2 a -0.08594 0.00000 0.64176  1.00000
Fe12 Fe   2 a 0.05747  0.00000 0.25904  1.00000
Fe13 Fe   2 a 0.75345  0.00000 0.00408  1.00000
Fe14 Fe   2 a 0.56620  0.00000 -0.03592 1.00000
Fe15 Fe   2 a 0.42998  0.00000 0.33297  1.00000
Fe16 Fe   2 a 0.18995  0.00000 0.48289  1.00000
Ge1  Ge   2 a 0.61227  0.00000 0.37704  1.00000
Ge2  Ge   2 a 0.86613  0.00000 0.23334  1.00000
Ge3  Ge   2 a 0.73242  0.00000 0.62229  1.00000
Ge4  Ge   2 a -0.06041 0.00000 0.00914  1.00000
Ge5  Ge   2 a 0.22633  0.00000 0.88601  1.00000
Ge6  Ge   2 a 0.09442  0.00000 0.64511  1.00000
Ge7  Ge   2 a 0.42970  0.00000 0.77301  1.00000
Ge8  Ge   2 a 0.39066  0.00000 0.52547  1.00000
 
