# CIF file
# This file was generated by FINDSYM
# Harold T. Stokes, Branton J. Campbell, Dorian M. Hatch
# Brigham Young University, Provo, Utah, USA
 
data_findsym-output
_audit_creation_method FINDSYM
 
_symmetry_space_group_name_H-M "P m n 21"
_symmetry_Int_Tables_number 31
 
_cell_length_a    3.96721
_cell_length_b    5.03077
_cell_length_c    7.31390
_cell_angle_alpha 90.00000
_cell_angle_beta  90.00000
_cell_angle_gamma 90.00000
 
loop_
_space_group_symop_id
_space_group_symop_operation_xyz
1 x,y,z
2 -x+1/2,-y,z+1/2
3 -x,y,z
4 x+1/2,-y,z+1/2
 
loop_
_atom_site_label
_atom_site_type_symbol
_atom_site_symmetry_multiplicity
_atom_site_Wyckoff_label
_atom_site_fract_x
_atom_site_fract_y
_atom_site_fract_z
_atom_site_occupancy
Fe1 Fe   2 a 0.00000 0.19429 0.72021 1.00000
Fe2 Fe   2 a 0.00000 0.69072 0.70352 1.00000
Fe3 Fe   2 a 0.00000 0.01986 0.39297 1.00000
Fe4 Fe   2 a 0.00000 0.60786 0.04830 1.00000
Ge1 Ge   2 a 0.00000 0.09032 0.06458 1.00000
Ge2 Ge   2 a 0.00000 0.51505 0.37572 1.00000
 
