# CIF file
# This file was generated by FINDSYM
# Harold T. Stokes, Branton J. Campbell, Dorian M. Hatch
# Brigham Young University, Provo, Utah, USA
 
data_findsym-output
_audit_creation_method FINDSYM
 
_symmetry_space_group_name_H-M "P -1"
_symmetry_Int_Tables_number 2
 
_cell_length_a    3.86077
_cell_length_b    3.87060
_cell_length_c    3.93550
_cell_angle_alpha 60.65233
_cell_angle_beta  60.67991
_cell_angle_gamma 60.24871
 
loop_
_space_group_symop_id
_space_group_symop_operation_xyz
1 x,y,z
2 -x,-y,-z
 
loop_
_atom_site_label
_atom_site_type_symbol
_atom_site_symmetry_multiplicity
_atom_site_Wyckoff_label
_atom_site_fract_x
_atom_site_fract_y
_atom_site_fract_z
_atom_site_occupancy
Be1 Be   1 h 0.50000 0.50000 0.50000 1.00000
V1  V    1 a 0.00000 0.00000 0.00000 1.00000
Co1 Co   2 i 0.25001 0.25001 0.24997 1.00000
 
