# CIF file
# This file was generated by FINDSYM
# Harold T. Stokes, Branton J. Campbell, Dorian M. Hatch
# Brigham Young University, Provo, Utah, USA
 
data_findsym-output
_audit_creation_method FINDSYM
 
_symmetry_space_group_name_H-M "P 1"
_symmetry_Int_Tables_number 1
 
_cell_length_a    5.47534
_cell_length_b    5.48929
_cell_length_c    6.64087
_cell_angle_alpha 90.00000
_cell_angle_beta  90.00000
_cell_angle_gamma 60.24870
 
loop_
_space_group_symop_id
_space_group_symop_operation_xyz
1 x,y,z
 
loop_
_atom_site_label
_atom_site_type_symbol
_atom_site_symmetry_multiplicity
_atom_site_Wyckoff_label
_atom_site_fract_x
_atom_site_fract_y
_atom_site_fract_z
_atom_site_occupancy
Co1 Co   1 a 0.66667 0.66667 0.66667 1.00000
Co2 Co   1 a 0.33333 0.33333 0.33333 1.00000
Co3 Co   1 a 0.00000 0.00000 0.00000 1.00000
F1  F    1 a 0.16788 0.66664 0.16663 1.00000
F2  F    1 a 0.66664 0.16549 0.16663 1.00000
F3  F    1 a 0.16549 0.16788 0.16663 1.00000
F4  F    1 a 0.00000 0.50244 0.50000 1.00000
F5  F    1 a 0.50244 0.49756 0.50000 1.00000
F6  F    1 a 0.49756 0.00000 0.50000 1.00000
F7  F    1 a 0.83212 0.83451 0.83337 1.00000
F8  F    1 a 0.83451 0.33336 0.83337 1.00000
F9  F    1 a 0.33336 0.83212 0.83337 1.00000
 
