# CIF file
# This file was generated by FINDSYM
# Harold T. Stokes, Branton J. Campbell, Dorian M. Hatch
# Brigham Young University, Provo, Utah, USA
 
data_findsym-output
_audit_creation_method FINDSYM
 
_symmetry_space_group_name_H-M "P 1"
_symmetry_Int_Tables_number 1
 
_cell_length_a    7.43110
_cell_length_b    7.44896
_cell_length_c    7.59061
_cell_angle_alpha 89.99608
_cell_angle_beta  60.69395
_cell_angle_gamma 60.24728
 
loop_
_space_group_symop_id
_space_group_symop_operation_xyz
1 x,y,z
 
loop_
_atom_site_label
_atom_site_type_symbol
_atom_site_symmetry_multiplicity
_atom_site_Wyckoff_label
_atom_site_fract_x
_atom_site_fract_y
_atom_site_fract_z
_atom_site_occupancy
Cr1  Cr   1 a 0.23199  0.61585  0.38392  1.00000
Cr2  Cr   1 a 0.66207  0.33792  0.33796  1.00000
Cr3  Cr   1 a 0.33783  -0.00002 -0.00003 1.00000
Cr4  Cr   1 a 0.00001  -0.00008 0.33784  1.00000
Cr5  Cr   1 a 0.66215  -0.00005 0.33795  1.00000
Cr6  Cr   1 a 0.00010  -0.00003 0.66208  1.00000
Cr7  Cr   1 a 0.23190  0.15223  0.38403  1.00000
Cr8  Cr   1 a 0.33787  0.66217  0.66214  1.00000
Cr9  Cr   1 a 0.76822  0.61588  0.38391  1.00000
Cr10 Cr   1 a 0.33782  0.00000  0.66216  1.00000
Cr11 Cr   1 a 0.23187  0.38418  0.15205  1.00000
Cr12 Cr   1 a 0.00013  -0.00008 -0.00002 1.00000
Cr13 Cr   1 a 0.66201  0.33805  -0.00004 1.00000
Cr14 Cr   1 a 0.33788  0.66209  0.00004  1.00000
Cr15 Cr   1 a 0.00003  0.66198  0.00004  1.00000
Cr16 Cr   1 a 0.66208  -0.00002 0.00001  1.00000
Cr17 Cr   1 a 0.76793  0.38421  0.61610  1.00000
Cr18 Cr   1 a 0.76813  0.61584  0.84792  1.00000
Cr19 Cr   1 a 0.76813  0.84776  0.61592  1.00000
Cr20 Cr   1 a 0.23177  0.38416  0.61611  1.00000
Cr21 Cr   1 a 0.00006  0.33798  -0.00008 1.00000
Mo1  Mo   1 a 0.49949  0.25046  0.75043  1.00000
Mo2  Mo   1 a 0.50045  0.74953  0.24958  1.00000
C1   C    1 a 0.00012  0.72461  0.27516  1.00000
C2   C    1 a -0.00009 0.27539  0.72484  1.00000
C3   C    1 a 0.55057  0.72466  0.72476  1.00000
C4   C    1 a 0.00001  0.27533  0.27520  1.00000
C5   C    1 a 0.44941  0.27537  0.27526  1.00000
C6   C    1 a 0.00005  0.72462  0.72476  1.00000
 
