# CIF file
# This file was generated by FINDSYM
# Harold T. Stokes, Branton J. Campbell, Dorian M. Hatch
# Brigham Young University, Provo, Utah, USA
 
data_findsym-output
_audit_creation_method FINDSYM
 
_symmetry_space_group_name_H-M "P 1"
_symmetry_Int_Tables_number 1
 
_cell_length_a    7.44133
_cell_length_b    7.45772
_cell_length_c    7.60139
_cell_angle_alpha 119.06172
_cell_angle_beta  90.42610
_cell_angle_gamma 119.74772
 
loop_
_space_group_symop_id
_space_group_symop_operation_xyz
1 x,y,z
 
loop_
_atom_site_label
_atom_site_type_symbol
_atom_site_symmetry_multiplicity
_atom_site_Wyckoff_label
_atom_site_fract_x
_atom_site_fract_y
_atom_site_fract_z
_atom_site_occupancy
Cr1  Cr   1 a 0.33814  0.33818  0.00005  1.00000
Cr2  Cr   1 a 0.00016  0.33851  0.00012  1.00000
Cr3  Cr   1 a 0.15482  0.76982  0.38484  1.00000
Cr4  Cr   1 a 0.66211  0.66184  0.66201  1.00000
Cr5  Cr   1 a 0.61494  0.76978  0.38483  1.00000
Cr6  Cr   1 a 0.66203  -0.00019 -0.00008 1.00000
Cr7  Cr   1 a -0.00011 0.66195  -0.00015 1.00000
Cr8  Cr   1 a 0.00014  0.33841  0.33827  1.00000
Cr9  Cr   1 a 0.33756  -0.00019 -0.00007 1.00000
Cr10 Cr   1 a -0.00001 -0.00022 0.33770  1.00000
Cr11 Cr   1 a 0.66204  0.66177  -0.00023 1.00000
Cr12 Cr   1 a -0.00016 0.66199  0.66213  1.00000
Cr13 Cr   1 a 0.38479  0.76987  0.61496  1.00000
Cr14 Cr   1 a -0.00009 -0.00058 -0.00035 1.00000
Cr15 Cr   1 a 0.33818  0.33820  0.33811  1.00000
Cr16 Cr   1 a 0.38509  0.23016  0.61511  1.00000
Cr17 Cr   1 a 0.61506  0.23024  0.38513  1.00000
Cr18 Cr   1 a 0.38473  0.76977  0.15483  1.00000
Cr19 Cr   1 a -0.00003 -0.00023 0.66216  1.00000
Cr20 Cr   1 a 0.61517  0.23042  0.84525  1.00000
Cr21 Cr   1 a 0.84524  0.23046  0.61528  1.00000
W1   W    1 a 0.25004  0.50012  0.75028  1.00000
W2   W    1 a 0.75028  0.50008  0.24994  1.00000
C1   C    1 a 0.72604  0.45199  0.72604  1.00000
C2   C    1 a 0.27410  0.54827  0.27412  1.00000
C3   C    1 a 0.72572  -0.00007 0.27416  1.00000
C4   C    1 a 0.72582  -0.00007 0.72576  1.00000
C5   C    1 a 0.27410  -0.00009 0.72575  1.00000
C6   C    1 a 0.27411  -0.00021 0.27406  1.00000
 
