# CIF file
# This file was generated by FINDSYM
# Harold T. Stokes, Branton J. Campbell, Dorian M. Hatch
# Brigham Young University, Provo, Utah, USA
 
data_findsym-output
_audit_creation_method FINDSYM
 
_symmetry_space_group_name_H-M "P 1"
_symmetry_Int_Tables_number 1
 
_cell_length_a    5.65413
_cell_length_b    5.67600
_cell_length_c    5.86044
_cell_angle_alpha 89.95862
_cell_angle_beta  89.93968
_cell_angle_gamma 89.92275
 
loop_
_space_group_symop_id
_space_group_symop_operation_xyz
1 x,y,z
 
loop_
_atom_site_label
_atom_site_type_symbol
_atom_site_symmetry_multiplicity
_atom_site_Wyckoff_label
_atom_site_fract_x
_atom_site_fract_y
_atom_site_fract_z
_atom_site_occupancy
Fe1  Fe   1 a 0.25211  0.25203  0.74789  1.00000
Fe2  Fe   1 a 0.25222  0.74775  0.74731  1.00000
Fe3  Fe   1 a 0.74764  0.25220  0.74798  1.00000
Fe4  Fe   1 a 0.74757  0.74730  0.25264  1.00000
Fe5  Fe   1 a 0.25247  0.74736  0.25285  1.00000
Fe6  Fe   1 a -0.00012 0.49980  0.50005  1.00000
Fe7  Fe   1 a 0.50021  0.50006  0.49987  1.00000
Fe8  Fe   1 a 0.25244  0.25264  0.25245  1.00000
Fe9  Fe   1 a 0.74771  0.74774  0.74746  1.00000
Fe10 Fe   1 a 0.49989  0.50015  0.00000  1.00000
Fe11 Fe   1 a 0.74763  0.25265  0.25210  1.00000
Fe12 Fe   1 a 0.50010  0.00005  0.50002  1.00000
Fe13 Fe   1 a 0.00034  0.00000  -0.00004 1.00000
Ge1  Ge   1 a -0.00015 0.00040  0.50001  1.00000
Ge2  Ge   1 a 0.00019  0.50012  -0.00036 1.00000
Ge3  Ge   1 a 0.49975  -0.00025 -0.00023 1.00000
 
