# CIF file
# This file was generated by FINDSYM
# Harold T. Stokes, Branton J. Campbell, Dorian M. Hatch
# Brigham Young University, Provo, Utah, USA
 
data_findsym-output
_audit_creation_method FINDSYM
 
_symmetry_space_group_name_H-M "P 1"
_symmetry_Int_Tables_number 1
 
_cell_length_a    7.33329
_cell_length_b    7.34624
_cell_length_c    7.48884
_cell_angle_alpha 60.95006
_cell_angle_beta  60.69382
_cell_angle_gamma 60.24107
 
loop_
_space_group_symop_id
_space_group_symop_operation_xyz
1 x,y,z
 
loop_
_atom_site_label
_atom_site_type_symbol
_atom_site_symmetry_multiplicity
_atom_site_Wyckoff_label
_atom_site_fract_x
_atom_site_fract_y
_atom_site_fract_z
_atom_site_occupancy
Fe1  Fe   1 a 0.00028  0.65951  0.34013  1.00000
Fe2  Fe   1 a 0.34029  0.65970  0.00031  1.00000
Fe3  Fe   1 a 0.61618  0.61566  0.15188  1.00000
Fe4  Fe   1 a -0.00019 0.00020  0.65964  1.00000
Fe5  Fe   1 a 0.15161  0.61587  0.61605  1.00000
Fe6  Fe   1 a 0.34028  0.00030  0.65974  1.00000
Fe7  Fe   1 a 0.65944  0.34048  0.00039  1.00000
Fe8  Fe   1 a 0.34044  -0.00020 -0.00021 1.00000
Fe9  Fe   1 a 0.65967  0.00032  0.34040  1.00000
Fe10 Fe   1 a -0.00019 0.34041  0.00027  1.00000
Fe11 Fe   1 a 0.00035  0.34022  0.65931  1.00000
Fe12 Fe   1 a 0.65980  -0.00020 -0.00019 1.00000
Fe13 Fe   1 a 0.38386  0.84847  0.38358  1.00000
Fe14 Fe   1 a 0.00026  -0.00024 -0.00011 1.00000
Fe15 Fe   1 a -0.00029 0.00022  0.34034  1.00000
Fe16 Fe   1 a 0.84828  0.38383  0.38367  1.00000
Fe17 Fe   1 a 0.61611  0.15192  0.61573  1.00000
Fe18 Fe   1 a 0.38412  0.38393  0.38379  1.00000
Fe19 Fe   1 a -0.00017 0.65954  0.00021  1.00000
Fe20 Fe   1 a 0.61641  0.61594  0.61612  1.00000
Fe21 Fe   1 a 0.38378  0.38370  0.84850  1.00000
Mo1  Mo   1 a 0.24962  0.25057  0.25027  1.00000
Mo2  Mo   1 a 0.74983  0.75017  0.75042  1.00000
C1   C    1 a 0.27691  0.72298  0.72314  1.00000
C2   C    1 a 0.27719  0.27703  0.72277  1.00000
C3   C    1 a 0.72301  0.27698  0.72277  1.00000
C4   C    1 a 0.27722  0.72268  0.27697  1.00000
C5   C    1 a 0.72313  0.72272  0.27692  1.00000
C6   C    1 a 0.72276  0.27728  0.27719  1.00000
 
