# CIF file
# This file was generated by FINDSYM
# Harold T. Stokes, Branton J. Campbell, Dorian M. Hatch
# Brigham Young University, Provo, Utah, USA
 
data_findsym-output
_audit_creation_method FINDSYM
 
_symmetry_space_group_name_H-M "P 1"
_symmetry_Int_Tables_number 1
 
_cell_length_a    7.54343
_cell_length_b    7.55043
_cell_length_c    7.70807
_cell_angle_alpha 60.98630
_cell_angle_beta  60.78616
_cell_angle_gamma 60.28998
 
loop_
_space_group_symop_id
_space_group_symop_operation_xyz
1 x,y,z
 
loop_
_atom_site_label
_atom_site_type_symbol
_atom_site_symmetry_multiplicity
_atom_site_Wyckoff_label
_atom_site_fract_x
_atom_site_fract_y
_atom_site_fract_z
_atom_site_occupancy
Fe1 Fe   1 a 0.62580  0.62600  0.62583  1.00000
Fe2 Fe   1 a 0.12248  0.62591  0.62574  1.00000
Fe3 Fe   1 a 0.62572  0.62588  0.12257  1.00000
Fe4 Fe   1 a 0.62578  0.12247  0.62579  1.00000
Cu1 Cu   1 a 0.88883  0.37052  0.37008  1.00000
Cu2 Cu   1 a 0.11980  0.11975  0.11990  1.00000
Cu3 Cu   1 a 0.37017  0.37046  0.88889  1.00000
Cu4 Cu   1 a 0.37045  0.37065  0.37022  1.00000
Cu5 Cu   1 a 0.37042  0.88873  0.37018  1.00000
Cu6 Cu   1 a 0.64077  0.11973  0.11973  1.00000
Cu7 Cu   1 a 0.11968  0.11971  0.64085  1.00000
Cu8 Cu   1 a 0.11976  0.64061  0.11985  1.00000
S1  S    1 a 0.50635  -0.00628 0.50643  1.00000
S2  S    1 a -0.00668 -0.00577 0.50637  1.00000
S3  S    1 a -0.00599 0.50601  -0.00598 1.00000
S4  S    1 a 0.50626  0.50609  -0.00651 1.00000
S5  S    1 a 0.50038  0.49950  0.50041  1.00000
S6  S    1 a -0.00646 0.50600  0.50625  1.00000
S7  S    1 a 0.00006  -0.00011 0.00015  1.00000
S8  S    1 a 0.50639  -0.00584 -0.00673 1.00000
 
