# CIF file
# This file was generated by FINDSYM
# Harold T. Stokes, Branton J. Campbell, Dorian M. Hatch
# Brigham Young University, Provo, Utah, USA
 
data_findsym-output
_audit_creation_method FINDSYM
 
_symmetry_space_group_name_H-M "P 1"
_symmetry_Int_Tables_number 1
 
_cell_length_a    7.55176
_cell_length_b    7.56797
_cell_length_c    7.71494
_cell_angle_alpha 60.94483
_cell_angle_beta  60.71188
_cell_angle_gamma 60.25384
 
loop_
_space_group_symop_id
_space_group_symop_operation_xyz
1 x,y,z
 
loop_
_atom_site_label
_atom_site_type_symbol
_atom_site_symmetry_multiplicity
_atom_site_Wyckoff_label
_atom_site_fract_x
_atom_site_fract_y
_atom_site_fract_z
_atom_site_occupancy
Fe1 Fe   1 a 0.12435  0.62525  0.62518  1.00000
Fe2 Fe   1 a 0.62521  0.12440  0.62517  1.00000
Fe3 Fe   1 a 0.62522  0.62525  0.12431  1.00000
Fe4 Fe   1 a 0.62521  0.62524  0.62517  1.00000
Cu1 Cu   1 a 0.36969  0.89095  0.36971  1.00000
Cu2 Cu   1 a 0.36972  0.36966  0.89095  1.00000
Cu3 Cu   1 a 0.88116  0.88123  0.88118  1.00000
Cu4 Cu   1 a 0.36970  0.36964  0.36971  1.00000
Cu5 Cu   1 a 0.88119  0.35635  0.88121  1.00000
Cu6 Cu   1 a 0.88115  0.88123  0.35641  1.00000
Cu7 Cu   1 a 0.35644  0.88121  0.88116  1.00000
Cu8 Cu   1 a 0.89090  0.36967  0.36975  1.00000
S1  S    1 a -0.00275 0.50271  0.50271  1.00000
S2  S    1 a 0.50271  0.50269  -0.00274 1.00000
S3  S    1 a -0.00278 -0.00265 0.50271  1.00000
S4  S    1 a 0.50270  -0.00265 -0.00277 1.00000
S5  S    1 a -0.00266 0.50264  -0.00265 1.00000
S6  S    1 a 0.50005  0.49991  0.50009  1.00000
S7  S    1 a 0.50277  -0.00274 0.50276  1.00000
S8  S    1 a 0.00002  0.00001  -0.00002 1.00000
 
