# CIF file
# This file was generated by FINDSYM
# Harold T. Stokes, Branton J. Campbell, Dorian M. Hatch
# Brigham Young University, Provo, Utah, USA
 
data_findsym-output
_audit_creation_method FINDSYM
 
_symmetry_space_group_name_H-M "P 1"
_symmetry_Int_Tables_number 1
 
_cell_length_a    6.07659
_cell_length_b    6.07772
_cell_length_c    6.26546
_cell_angle_alpha 89.96974
_cell_angle_beta  89.98083
_cell_angle_gamma 89.99656
 
loop_
_space_group_symop_id
_space_group_symop_operation_xyz
1 x,y,z
 
loop_
_atom_site_label
_atom_site_type_symbol
_atom_site_symmetry_multiplicity
_atom_site_Wyckoff_label
_atom_site_fract_x
_atom_site_fract_y
_atom_site_fract_z
_atom_site_occupancy
Fe1 Fe   1 a 0.87840  0.87821  0.62191  1.00000
Fe2 Fe   1 a 0.12169  0.37844  0.87839  1.00000
Fe3 Fe   1 a 0.37832  0.62181  0.37822  1.00000
Fe4 Fe   1 a 0.62149  0.12146  0.12160  1.00000
Sb1 Sb   1 a 0.38661  0.88657  0.88658  1.00000
Sb2 Sb   1 a 0.88674  0.61330  0.11328  1.00000
Sb3 Sb   1 a 0.11332  0.11324  0.38657  1.00000
Sb4 Sb   1 a 0.61305  0.38684  0.61322  1.00000
Pt1 Pt   1 a 0.03302  0.53285  0.53291  1.00000
Pt2 Pt   1 a 0.53312  -0.03293 0.46723  1.00000
Pt3 Pt   1 a 0.46713  0.46707  0.03300  1.00000
Pt4 Pt   1 a -0.03288 0.03313  -0.03290 1.00000
 
