# CIF file
# This file was generated by FINDSYM
# Harold T. Stokes, Branton J. Campbell, Dorian M. Hatch
# Brigham Young University, Provo, Utah, USA
 
data_findsym-output
_audit_creation_method FINDSYM
 
_symmetry_space_group_name_H-M "P 1"
_symmetry_Int_Tables_number 1
 
_cell_length_a    7.96707
_cell_length_b    7.98658
_cell_length_c    8.13809
_cell_angle_alpha 60.93533
_cell_angle_beta  60.69344
_cell_angle_gamma 60.24887
 
loop_
_space_group_symop_id
_space_group_symop_operation_xyz
1 x,y,z
 
loop_
_atom_site_label
_atom_site_type_symbol
_atom_site_symmetry_multiplicity
_atom_site_Wyckoff_label
_atom_site_fract_x
_atom_site_fract_y
_atom_site_fract_z
_atom_site_occupancy
Hf1  Hf   1 a 0.79489  0.20510  0.79481  1.00000
Hf2  Hf   1 a 0.20524  0.20525  0.79461  1.00000
Hf3  Hf   1 a 0.79465  0.79497  0.20508  1.00000
Hf4  Hf   1 a 0.20534  0.79478  0.20522  1.00000
Hf5  Hf   1 a 0.79467  0.20529  0.20517  1.00000
Hf6  Hf   1 a 0.20515  0.79500  0.79460  1.00000
Fe1  Fe   1 a 0.62100  0.13687  0.62106  1.00000
Fe2  Fe   1 a 0.17545  0.17539  0.17549  1.00000
Fe3  Fe   1 a 0.86322  0.37890  0.37896  1.00000
Fe4  Fe   1 a 0.17542  0.17536  0.47381  1.00000
Fe5  Fe   1 a 0.17543  0.47368  0.17547  1.00000
Fe6  Fe   1 a 0.52622  0.82464  0.82458  1.00000
Fe7  Fe   1 a 0.13692  0.62102  0.62102  1.00000
Fe8  Fe   1 a 0.82462  0.52621  0.82459  1.00000
Fe9  Fe   1 a 0.82455  0.82459  0.52634  1.00000
Fe10 Fe   1 a 0.47375  0.17537  0.17547  1.00000
Fe11 Fe   1 a 0.62102  0.62107  0.13681  1.00000
Fe12 Fe   1 a 0.37893  0.37887  0.37893  1.00000
Fe13 Fe   1 a 0.37894  0.37888  0.86327  1.00000
Fe14 Fe   1 a 0.37895  0.86318  0.37895  1.00000
Fe15 Fe   1 a 0.82456  0.82461  0.82454  1.00000
Fe16 Fe   1 a 0.62106  0.62111  0.62111  1.00000
Si1  Si   1 a 0.00012  0.00001  0.50009  1.00000
Si2  Si   1 a 0.50005  -0.00004 -0.00001 1.00000
Si3  Si   1 a 0.49985  0.50002  0.49993  1.00000
Si4  Si   1 a 0.00018  0.49970  0.50019  1.00000
Si5  Si   1 a -0.00008 0.50003  -0.00015 1.00000
Si6  Si   1 a 0.49972  0.00022  0.49998  1.00000
Si7  Si   1 a 0.50015  0.49992  0.00005  1.00000
 
