# CIF file
# This file was generated by FINDSYM
# Harold T. Stokes, Branton J. Campbell, Dorian M. Hatch
# Brigham Young University, Provo, Utah, USA
 
data_findsym-output
_audit_creation_method FINDSYM
 
_symmetry_space_group_name_H-M "P -4 2 m"
_symmetry_Int_Tables_number 111
 
_cell_length_a    5.87939
_cell_length_b    5.87939
_cell_length_c    6.05936
_cell_angle_alpha 90.00000
_cell_angle_beta  90.00000
_cell_angle_gamma 90.00000
 
loop_
_space_group_symop_id
_space_group_symop_operation_xyz
1 x,y,z
2 x,-y,-z
3 -x,y,-z
4 -x,-y,z
5 y,x,z
6 y,-x,-z
7 -y,x,-z
8 -y,-x,z
 
loop_
_atom_site_label
_atom_site_type_symbol
_atom_site_symmetry_multiplicity
_atom_site_Wyckoff_label
_atom_site_fract_x
_atom_site_fract_y
_atom_site_fract_z
_atom_site_occupancy
Li1 Li   1 c 0.00000 0.00000 0.50000 1.00000
Li2 Li   2 e 0.50000 0.00000 0.00000 1.00000
Cr1 Cr   1 a 0.00000 0.00000 0.00000 1.00000
S1  S    4 n 0.20744 0.20744 0.20744 1.00000
 
