# CIF file
# This file was generated by FINDSYM
# Harold T. Stokes, Branton J. Campbell, Dorian M. Hatch
# Brigham Young University, Provo, Utah, USA
 
data_findsym-output
_audit_creation_method FINDSYM
 
_symmetry_space_group_name_H-M "P 21 21 21"
_symmetry_Int_Tables_number 19
 
_cell_length_a    6.54339
_cell_length_b    6.54339
_cell_length_c    6.74369
_cell_angle_alpha 90.00000
_cell_angle_beta  90.00000
_cell_angle_gamma 90.00000
 
loop_
_space_group_symop_id
_space_group_symop_operation_xyz
1 x,y,z
2 x+1/2,-y+1/2,-z
3 -x,y+1/2,-z+1/2
4 -x+1/2,-y,z+1/2
 
loop_
_atom_site_label
_atom_site_type_symbol
_atom_site_symmetry_multiplicity
_atom_site_Wyckoff_label
_atom_site_fract_x
_atom_site_fract_y
_atom_site_fract_z
_atom_site_occupancy
Mn1 Mn   4 a 0.62063  0.20618 0.45303 1.00000
Mn2 Mn   4 a -0.04697 0.12063 0.20618 1.00000
Mn3 Mn   4 a 0.70618  0.45303 0.12063 1.00000
Ge1 Ge   4 a 0.43814  0.56186 0.43814 1.00000
Ir1 Ir   4 a 0.81035  0.18965 0.81035 1.00000
 
