# CIF file
# This file was generated by FINDSYM
# Harold T. Stokes, Branton J. Campbell, Dorian M. Hatch
# Brigham Young University, Provo, Utah, USA
 
data_findsym-output
_audit_creation_method FINDSYM
 
_symmetry_space_group_name_H-M "P 1"
_symmetry_Int_Tables_number 1
 
_cell_length_a    7.45489
_cell_length_b    7.47171
_cell_length_c    7.61501
_cell_angle_alpha 60.94482
_cell_angle_beta  60.70349
_cell_angle_gamma 60.24832
 
loop_
_space_group_symop_id
_space_group_symop_operation_xyz
1 x,y,z
 
loop_
_atom_site_label
_atom_site_type_symbol
_atom_site_symmetry_multiplicity
_atom_site_Wyckoff_label
_atom_site_fract_x
_atom_site_fract_y
_atom_site_fract_z
_atom_site_occupancy
Mn1  Mn   1 a 0.43478  0.31522  0.31521  1.00000
Mn2  Mn   1 a 0.18484  0.06513  0.06519  1.00000
Mn3  Mn   1 a 0.56524  0.06520  0.68478  1.00000
Mn4  Mn   1 a 0.18485  0.06515  0.68485  1.00000
Mn5  Mn   1 a 0.81523  -0.06523 0.31522  1.00000
Mn6  Mn   1 a 0.81522  -0.06523 -0.06521 1.00000
Mn7  Mn   1 a 0.56519  0.68481  0.06520  1.00000
Mn8  Mn   1 a 0.56516  0.68487  0.68485  1.00000
Mn9  Mn   1 a 0.81526  0.31527  -0.06525 1.00000
Mn10 Mn   1 a 0.43477  0.31523  -0.06523 1.00000
Mn11 Mn   1 a 0.43477  -0.06527 0.31524  1.00000
Mn12 Mn   1 a 0.18478  0.68477  0.06526  1.00000
Si1  Si   1 a -0.00019 0.49994  0.00021  1.00000
Si2  Si   1 a -0.00009 0.49984  0.50000  1.00000
Si3  Si   1 a 0.50021  0.50003  0.49981  1.00000
Si4  Si   1 a 0.00000  0.00025  0.49990  1.00000
Ni1  Ni   1 a 0.86652  0.71117  0.71118  1.00000
Ni2  Ni   1 a 0.21111  0.71120  0.71112  1.00000
Ni3  Ni   1 a 0.13315  0.28883  0.28907  1.00000
Ni4  Ni   1 a 0.78897  0.28896  0.28887  1.00000
Ni5  Ni   1 a 0.21114  0.36657  0.71111  1.00000
Ni6  Ni   1 a 0.78906  0.28896  0.63314  1.00000
Ni7  Ni   1 a 0.78885  0.63320  0.28898  1.00000
Ni8  Ni   1 a 0.21119  0.71114  0.36652  1.00000
 
