# CIF file
# This file was generated by FINDSYM
# Harold T. Stokes, Branton J. Campbell, Dorian M. Hatch
# Brigham Young University, Provo, Utah, USA
 
data_findsym-output
_audit_creation_method FINDSYM
 
_symmetry_space_group_name_H-M "P 1"
_symmetry_Int_Tables_number 1
 
_cell_length_a    4.62338
_cell_length_b    4.62722
_cell_length_c    4.68056
_cell_angle_alpha 118.95570
_cell_angle_beta  119.12719
_cell_angle_gamma 90.45667
 
loop_
_space_group_symop_id
_space_group_symop_operation_xyz
1 x,y,z
 
loop_
_atom_site_label
_atom_site_type_symbol
_atom_site_symmetry_multiplicity
_atom_site_Wyckoff_label
_atom_site_fract_x
_atom_site_fract_y
_atom_site_fract_z
_atom_site_occupancy
Mn1 Mn   1 a 0.49887  0.49841  -0.00085 1.00000
In1 In   1 a -0.00040 -0.00015 -0.00014 1.00000
In2 In   1 a 0.24941  0.74874  0.49930  1.00000
W1  W    1 a 0.75212  0.25301  0.50169  1.00000
 
