# CIF file
# This file was generated by FINDSYM
# Harold T. Stokes, Branton J. Campbell, Dorian M. Hatch
# Brigham Young University, Provo, Utah, USA
 
data_findsym-output
_audit_creation_method FINDSYM
 
_symmetry_space_group_name_H-M "P 1"
_symmetry_Int_Tables_number 1
 
_cell_length_a    3.90747
_cell_length_b    3.91076
_cell_length_c    3.91411
_cell_angle_alpha 60.60516
_cell_angle_beta  60.46733
_cell_angle_gamma 60.32630
 
loop_
_space_group_symop_id
_space_group_symop_operation_xyz
1 x,y,z
 
loop_
_atom_site_label
_atom_site_type_symbol
_atom_site_symmetry_multiplicity
_atom_site_Wyckoff_label
_atom_site_fract_x
_atom_site_fract_y
_atom_site_fract_z
_atom_site_occupancy
Mn1 Mn   1 a 0.00089 0.00089 0.00089 1.00000
S1  S    1 a 0.24911 0.24911 0.24911 1.00000
 
