# CIF file
# This file was generated by FINDSYM
# Harold T. Stokes, Branton J. Campbell, Dorian M. Hatch
# Brigham Young University, Provo, Utah, USA
 
data_findsym-output
_audit_creation_method FINDSYM
 
_symmetry_space_group_name_H-M "I 21 21 21"
_symmetry_Int_Tables_number 24
 
_cell_length_a    7.95505
_cell_length_b    7.95505
_cell_length_c    8.19855
_cell_angle_alpha 90.00000
_cell_angle_beta  90.00000
_cell_angle_gamma 90.00000
 
loop_
_space_group_symop_id
_space_group_symop_operation_xyz
1 x,y,z
2 x,-y,-z+1/2
3 -x+1/2,y,-z
4 -x,-y+1/2,z
5 x+1/2,y+1/2,z+1/2
6 x+1/2,-y+1/2,-z
7 -x,y+1/2,-z+1/2
8 -x+1/2,-y,z+1/2
 
loop_
_atom_site_label
_atom_site_type_symbol
_atom_site_symmetry_multiplicity
_atom_site_Wyckoff_label
_atom_site_fract_x
_atom_site_fract_y
_atom_site_fract_z
_atom_site_occupancy
Ni1 Ni   4 c 0.00000 0.25000 0.23231 1.00000
Ni2 Ni   4 a 0.73231 0.00000 0.25000 1.00000
Ni3 Ni   4 b 0.25000 0.76769 0.00000 1.00000
Bi1 Bi   8 d 0.00418 0.50418 0.00418 1.00000
S1  S    8 d 0.72984 0.27016 0.22985 1.00000
 
