# CIF file
# This file was generated by FINDSYM
# Harold T. Stokes, Branton J. Campbell, Dorian M. Hatch
# Brigham Young University, Provo, Utah, USA
 
data_findsym-output
_audit_creation_method FINDSYM
 
_symmetry_space_group_name_H-M "P 1"
_symmetry_Int_Tables_number 1
 
_cell_length_a    5.53638
_cell_length_b    5.53913
_cell_length_c    5.74569
_cell_angle_alpha 89.98832
_cell_angle_beta  89.99776
_cell_angle_gamma 89.97609
 
loop_
_space_group_symop_id
_space_group_symop_operation_xyz
1 x,y,z
 
loop_
_atom_site_label
_atom_site_type_symbol
_atom_site_symmetry_multiplicity
_atom_site_Wyckoff_label
_atom_site_fract_x
_atom_site_fract_y
_atom_site_fract_z
_atom_site_occupancy
Ni1 Ni   1 a 0.00532 0.00482 -0.00029 1.00000
Ni2 Ni   1 a 0.50593 0.50465 -0.00435 1.00000
Ni3 Ni   1 a 0.50448 0.00223 0.49900  1.00000
Ni4 Ni   1 a 0.00289 0.50702 0.49696  1.00000
S1  S    1 a 0.89683 0.39760 0.10440  1.00000
S2  S    1 a 0.39727 0.11170 0.89011  1.00000
S3  S    1 a 0.39487 0.39462 0.38867  1.00000
S4  S    1 a 0.89564 0.11300 0.60574  1.00000
S5  S    1 a 0.11145 0.61288 0.89111  1.00000
S6  S    1 a 0.61178 0.89678 0.10385  1.00000
S7  S    1 a 0.60963 0.60941 0.60238  1.00000
S8  S    1 a 0.11090 0.89830 0.39242  1.00000
 
