# CIF file
# This file was generated by FINDSYM
# Harold T. Stokes, Branton J. Campbell, Dorian M. Hatch
# Brigham Young University, Provo, Utah, USA
 
data_findsym-output
_audit_creation_method FINDSYM
 
_symmetry_space_group_name_H-M "P 1"
_symmetry_Int_Tables_number 1
 
_cell_length_a    4.27863
_cell_length_b    4.28490
_cell_length_c    4.35936
_cell_angle_alpha 60.89198
_cell_angle_beta  61.08632
_cell_angle_gamma 60.25917
 
loop_
_space_group_symop_id
_space_group_symop_operation_xyz
1 x,y,z
 
loop_
_atom_site_label
_atom_site_type_symbol
_atom_site_symmetry_multiplicity
_atom_site_Wyckoff_label
_atom_site_fract_x
_atom_site_fract_y
_atom_site_fract_z
_atom_site_occupancy
Ti1 Ti   1 a 0.00004  0.74994  0.74998 1.00000
Mn1 Mn   1 a 0.00030  0.50013  0.49979 1.00000
Mn2 Mn   1 a -0.00032 -0.00018 0.00027 1.00000
Ga1 Ga   1 a -0.00001 0.25010  0.24996 1.00000
 
