# CIF file
# This file was generated by FINDSYM
# Harold T. Stokes, Branton J. Campbell, Dorian M. Hatch
# Brigham Young University, Provo, Utah, USA
 
data_findsym-output
_audit_creation_method FINDSYM
 
_symmetry_space_group_name_H-M "P -1"
_symmetry_Int_Tables_number 2
 
_cell_length_a    4.10013
_cell_length_b    4.10908
_cell_length_c    4.18882
_cell_angle_alpha 90.54428
_cell_angle_beta  118.98719
_cell_angle_gamma 119.73927
 
loop_
_space_group_symop_id
_space_group_symop_operation_xyz
1 x,y,z
2 -x,-y,-z
 
loop_
_atom_site_label
_atom_site_type_symbol
_atom_site_symmetry_multiplicity
_atom_site_Wyckoff_label
_atom_site_fract_x
_atom_site_fract_y
_atom_site_fract_z
_atom_site_occupancy
Ti1 Ti   1 h 0.50000 0.50000 0.50000 1.00000
Mn1 Mn   2 i 0.00004 0.25005 0.74989 1.00000
Ge1 Ge   1 d 0.50000 0.00000 0.00000 1.00000
 
