# CIF file
# This file was generated by FINDSYM
# Harold T. Stokes, Branton J. Campbell, Dorian M. Hatch
# Brigham Young University, Provo, Utah, USA
 
data_findsym-output
_audit_creation_method FINDSYM
 
_symmetry_space_group_name_H-M "P 1"
_symmetry_Int_Tables_number 1
 
_cell_length_a    8.38726
_cell_length_b    8.39998
_cell_length_c    8.56266
_cell_angle_alpha 109.16457
_cell_angle_beta  108.87289
_cell_angle_gamma 109.35634
 
loop_
_space_group_symop_id
_space_group_symop_operation_xyz
1 x,y,z
 
loop_
_atom_site_label
_atom_site_type_symbol
_atom_site_symmetry_multiplicity
_atom_site_Wyckoff_label
_atom_site_fract_x
_atom_site_fract_y
_atom_site_fract_z
_atom_site_occupancy
Y1  Y    1 a 0.81030  0.69661  0.50660  1.00000
Y2  Y    1 a 0.30320  0.49277  0.18923  1.00000
Y3  Y    1 a 0.18973  0.69710  0.88700  1.00000
Y4  Y    1 a 0.69558  0.88613  0.18991  1.00000
Y5  Y    1 a 0.30434  0.11348  0.81029  1.00000
Y6  Y    1 a 0.11548  0.81034  0.30377  1.00000
Y7  Y    1 a 0.81016  0.30370  0.11365  1.00000
Y8  Y    1 a 0.50686  0.81034  0.69618  1.00000
Y9  Y    1 a 0.49310  0.19015  0.30424  1.00000
Y10 Y    1 a 0.69600  0.50641  0.80997  1.00000
Y11 Y    1 a 0.88564  0.19032  0.69628  1.00000
Y12 Y    1 a 0.19061  0.30337  0.49331  1.00000
Ni1 Ni   1 a 0.62135  0.50025  0.12154  1.00000
Ni2 Ni   1 a 0.50022  0.12178  0.62199  1.00000
Ni3 Ni   1 a 0.49977  0.87776  0.37812  1.00000
Ni4 Ni   1 a 0.37865  0.49985  0.87867  1.00000
Ni5 Ni   1 a 0.87858  0.37876  0.50042  1.00000
Ni6 Ni   1 a 0.12166  0.62200  0.50009  1.00000
Pb1 Pb   1 a -0.00123 -0.00111 -0.00126 1.00000
 
