# CIF file
# This file was generated by FINDSYM
# Harold T. Stokes, Branton J. Campbell, Dorian M. Hatch
# Brigham Young University, Provo, Utah, USA
 
data_findsym-output
_audit_creation_method FINDSYM
 
_symmetry_space_group_name_H-M "P m n 21"
_symmetry_Int_Tables_number 31
 
_cell_length_a    4.87600
_cell_length_b    4.89918
_cell_length_c    7.10582
_cell_angle_alpha 90.00000
_cell_angle_beta  90.00000
_cell_angle_gamma 90.00000
 
loop_
_space_group_symop_id
_space_group_symop_operation_xyz
1 x,y,z
2 -x+1/2,-y,z+1/2
3 -x,y,z
4 x+1/2,-y,z+1/2
 
loop_
_atom_site_label
_atom_site_type_symbol
_atom_site_symmetry_multiplicity
_atom_site_Wyckoff_label
_atom_site_fract_x
_atom_site_fract_y
_atom_site_fract_z
_atom_site_occupancy
Y1  Y    2 a 0.00000 0.25435 -0.08572 1.00000
Mg1 Mg   2 a 0.00000 0.75569 0.16230  1.00000
Ni1 Ni   2 a 0.00000 0.49440 0.53751  1.00000
Ni2 Ni   2 a 0.00000 0.00121 0.53690  1.00000
Ni3 Ni   4 b 0.25185 0.75159 0.78951  1.00000
 
