# CIF file
# This file was generated by FINDSYM
# Harold T. Stokes, Branton J. Campbell, Dorian M. Hatch
# Brigham Young University, Provo, Utah, USA
 
data_findsym-output
_audit_creation_method FINDSYM
 
_symmetry_space_group_name_H-M "P 1"
_symmetry_Int_Tables_number 1
 
_cell_length_a    9.23655
_cell_length_b    9.25861
_cell_length_c    9.43709
_cell_angle_alpha 60.94405
_cell_angle_beta  60.70438
_cell_angle_gamma 60.24712
 
loop_
_space_group_symop_id
_space_group_symop_operation_xyz
1 x,y,z
 
loop_
_atom_site_label
_atom_site_type_symbol
_atom_site_symmetry_multiplicity
_atom_site_Wyckoff_label
_atom_site_fract_x
_atom_site_fract_y
_atom_site_fract_z
_atom_site_occupancy
Zr1  Zr   1 a 0.85664  0.35669  0.39322  1.00000
Zr2  Zr   1 a -0.00007 0.00010  0.00005  1.00000
Zr3  Zr   1 a 0.14347  0.10658  0.14350  1.00000
Zr4  Zr   1 a 0.85666  0.89344  0.85648  1.00000
Zr5  Zr   1 a 0.60665  0.64335  0.14342  1.00000
Zr6  Zr   1 a 0.39328  0.35668  0.85659  1.00000
Zr7  Zr   1 a 0.14329  0.64339  0.60676  1.00000
Zr8  Zr   1 a 0.85665  0.89352  0.39327  1.00000
Zr9  Zr   1 a 0.39336  0.35670  0.39327  1.00000
Zr10 Zr   1 a 0.60650  0.10659  0.14344  1.00000
Zr11 Zr   1 a 0.60662  0.64322  0.60675  1.00000
Zr12 Zr   1 a 0.00006  0.50000  0.49992  1.00000
Zr13 Zr   1 a 0.50007  0.49991  0.00006  1.00000
Zr14 Zr   1 a -0.00002 0.49993  0.00010  1.00000
Zr15 Zr   1 a 0.39333  0.89348  0.85660  1.00000
Zr16 Zr   1 a 0.14332  0.10658  0.60662  1.00000
Al1  Al   1 a 0.50000  -0.00007 0.00012  1.00000
Al2  Al   1 a 0.49996  -0.00007 0.49997  1.00000
Al3  Al   1 a -0.00008 0.00006  0.49998  1.00000
Al4  Al   1 a 0.49995  0.50008  0.49995  1.00000
Ni1  Ni   1 a 0.19726  0.69723  -0.09180 1.00000
Ni2  Ni   1 a 0.09157  0.30278  0.80291  1.00000
Ni3  Ni   1 a 0.19723  0.40838  0.19716  1.00000
Ni4  Ni   1 a 0.80288  0.30282  0.80291  1.00000
Ni5  Ni   1 a 0.19719  0.69716  0.19713  1.00000
Ni6  Ni   1 a 0.80285  0.59150  0.80287  1.00000
Ni7  Ni   1 a -0.09146 0.69717  0.19710  1.00000
Ni8  Ni   1 a 0.80283  0.30280  0.09164  1.00000
 
