# CIF file
# This file was generated by FINDSYM
# Harold T. Stokes, Branton J. Campbell, Dorian M. Hatch
# Brigham Young University, Provo, Utah, USA
 
data_findsym-output
_audit_creation_method FINDSYM
 
_symmetry_space_group_name_H-M "P 1"
_symmetry_Int_Tables_number 1
 
_cell_length_a    9.34181
_cell_length_b    9.36208
_cell_length_c    9.54443
_cell_angle_alpha 60.93835
_cell_angle_beta  60.70037
_cell_angle_gamma 60.25586
 
loop_
_space_group_symop_id
_space_group_symop_operation_xyz
1 x,y,z
 
loop_
_atom_site_label
_atom_site_type_symbol
_atom_site_symmetry_multiplicity
_atom_site_Wyckoff_label
_atom_site_fract_x
_atom_site_fract_y
_atom_site_fract_z
_atom_site_occupancy
Zr1  Zr   1 a 0.13653  0.62121  0.62101  1.00000
Zr2  Zr   1 a 0.37884  0.37895  0.86319  1.00000
Zr3  Zr   1 a 0.37868  0.37897  0.37916  1.00000
Zr4  Zr   1 a 0.62131  0.62122  0.13646  1.00000
Zr5  Zr   1 a 0.00019  -0.00008 0.00009  1.00000
Zr6  Zr   1 a 0.37872  0.86330  0.37910  1.00000
Zr7  Zr   1 a 0.62107  0.62104  0.62093  1.00000
Zr8  Zr   1 a 0.86350  0.37871  0.37904  1.00000
Zr9  Zr   1 a 0.62107  0.13685  0.62109  1.00000
In1  In   1 a 0.34229  0.65783  -0.00015 1.00000
In2  In   1 a 0.34277  -0.00007 -0.00009 1.00000
In3  In   1 a 0.65811  0.00018  0.00001  1.00000
In4  In   1 a -0.00016 0.34224  0.00007  1.00000
In5  In   1 a -0.00004 -0.00011 0.65777  1.00000
In6  In   1 a 0.65769  -0.00010 0.34250  1.00000
In7  In   1 a 0.34222  -0.00014 0.65777  1.00000
In8  In   1 a 0.65755  0.34225  0.00006  1.00000
In9  In   1 a -0.00004 0.34219  0.65773  1.00000
In10 In   1 a 0.00020  0.65760  -0.00004 1.00000
In11 In   1 a -0.00005 0.00003  0.34232  1.00000
In12 In   1 a 0.00004  0.65766  0.34230  1.00000
In13 In   1 a 0.75016  0.75009  0.74984  1.00000
In14 In   1 a 0.24985  0.25014  0.25010  1.00000
Co1  Co   1 a 0.27938  0.72058  0.27957  1.00000
Co2  Co   1 a 0.49994  0.50010  0.49996  1.00000
Co3  Co   1 a 0.27975  0.72013  0.72016  1.00000
Co4  Co   1 a 0.27945  0.27949  0.72061  1.00000
Co5  Co   1 a 0.72042  0.27957  0.72027  1.00000
Co6  Co   1 a 0.72021  0.27976  0.27970  1.00000
Co7  Co   1 a 0.72038  0.72041  0.27946  1.00000
 
