# CIF file
# This file was generated by FINDSYM
# Harold T. Stokes, Branton J. Campbell, Dorian M. Hatch
# Brigham Young University, Provo, Utah, USA
 
data_findsym-output
_audit_creation_method FINDSYM
 
_symmetry_space_group_name_H-M "C 1 m 1"
_symmetry_Int_Tables_number 8
 
_cell_length_a    9.56339
_cell_length_b    2.86775
_cell_length_c    6.90933
_cell_angle_alpha 90.00000
_cell_angle_beta  118.79047
_cell_angle_gamma 90.00000
 
loop_
_space_group_symop_id
_space_group_symop_operation_xyz
1 x,y,z
2 x,-y,z
3 x+1/2,y+1/2,z
4 x+1/2,-y+1/2,z
 
loop_
_atom_site_label
_atom_site_type_symbol
_atom_site_symmetry_multiplicity
_atom_site_Wyckoff_label
_atom_site_fract_x
_atom_site_fract_y
_atom_site_fract_z
_atom_site_occupancy
Fe1 Fe   2 a 0.19614  0.00000 -0.07984 1.00000
Fe2 Fe   2 a 0.56387  0.00000 0.10455  1.00000
Fe3 Fe   2 a 0.86489  0.00000 0.80750  1.00000
Fe4 Fe   2 a -0.09994 0.00000 0.22169  1.00000
Fe5 Fe   2 a 0.49568  0.00000 0.62985  1.00000
Fe6 Fe   2 a 0.16427  0.00000 0.52344  1.00000
S1  S    2 a 0.26803  0.00000 0.30918  1.00000
 
