# CIF file
# This file was generated by FINDSYM
# Harold T. Stokes, Branton J. Campbell, Dorian M. Hatch
# Brigham Young University, Provo, Utah, USA
 
data_findsym-output
_audit_creation_method FINDSYM
 
_symmetry_space_group_name_H-M "P 1 m 1"
_symmetry_Int_Tables_number 6
 
_cell_length_a    4.07253
_cell_length_b    2.90224
_cell_length_c    7.18970
_cell_angle_alpha 90.00000
_cell_angle_beta  90.68940
_cell_angle_gamma 90.00000
 
loop_
_space_group_symop_id
_space_group_symop_operation_xyz
1 x,y,z
2 x,-y,z
 
loop_
_atom_site_label
_atom_site_type_symbol
_atom_site_symmetry_multiplicity
_atom_site_Wyckoff_label
_atom_site_fract_x
_atom_site_fract_y
_atom_site_fract_z
_atom_site_occupancy
Fe1 Fe   1 a 0.58651  0.00000 0.53342 1.00000
Fe2 Fe   1 a 0.09743  0.00000 0.81280 1.00000
Fe3 Fe   1 a 0.08402  0.00000 0.26007 1.00000
Fe4 Fe   1 b 0.58482  0.50000 0.80611 1.00000
Fe5 Fe   1 b 0.57265  0.50000 0.25849 1.00000
Fe6 Fe   1 b 0.08735  0.50000 0.53577 1.00000
S1  S    1 b -0.04805 0.50000 0.03602 1.00000
 
