# CIF file
# This file was generated by FINDSYM
# Harold T. Stokes, Branton J. Campbell, Dorian M. Hatch
# Brigham Young University, Provo, Utah, USA
 
data_findsym-output
_audit_creation_method FINDSYM
 
_symmetry_space_group_name_H-M "P m m 2"
_symmetry_Int_Tables_number 25
 
_cell_length_a    7.18983
_cell_length_b    2.90229
_cell_length_c    4.07240
_cell_angle_alpha 90.00000
_cell_angle_beta  90.00000
_cell_angle_gamma 90.00000
 
loop_
_space_group_symop_id
_space_group_symop_operation_xyz
1 x,y,z
2 -x,-y,z
3 -x,y,z
4 x,-y,z
 
loop_
_atom_site_label
_atom_site_type_symbol
_atom_site_symmetry_multiplicity
_atom_site_Wyckoff_label
_atom_site_fract_x
_atom_site_fract_y
_atom_site_fract_z
_atom_site_occupancy
Fe1 Fe   2 f 0.72356 0.50000 0.74417 1.00000
Fe2 Fe   1 b 0.00000 0.50000 0.24033 1.00000
Fe3 Fe   1 a 0.00000 0.00000 0.74113 1.00000
Fe4 Fe   2 e 0.27384 0.00000 0.23204 1.00000
S1  S    1 c 0.50000 0.00000 0.60512 1.00000
 
