# CIF file
# This file was generated by FINDSYM
# Harold T. Stokes, Branton J. Campbell, Dorian M. Hatch
# Brigham Young University, Provo, Utah, USA
 
data_findsym-output
_audit_creation_method FINDSYM
 
_symmetry_space_group_name_H-M "P -1"
_symmetry_Int_Tables_number 2
 
_cell_length_a    2.59508
_cell_length_b    4.28878
_cell_length_c    6.10947
_cell_angle_alpha 104.32608
_cell_angle_beta  99.83865
_cell_angle_gamma 96.73871
 
loop_
_space_group_symop_id
_space_group_symop_operation_xyz
1 x,y,z
2 -x,-y,-z
 
loop_
_atom_site_label
_atom_site_type_symbol
_atom_site_symmetry_multiplicity
_atom_site_Wyckoff_label
_atom_site_fract_x
_atom_site_fract_y
_atom_site_fract_z
_atom_site_occupancy
Fe1 Fe   2 i 0.62931 0.32640  0.11392 1.00000
Fe2 Fe   2 i 0.09647 -0.09895 0.30173 1.00000
Fe3 Fe   1 h 0.50000 0.50000  0.50000 1.00000
N1  N    1 a 0.00000 0.00000  0.00000 1.00000
 
