# CIF file
# This file was generated by FINDSYM
# Harold T. Stokes, Branton J. Campbell, Dorian M. Hatch
# Brigham Young University, Provo, Utah, USA
 
data_findsym-output
_audit_creation_method FINDSYM
 
_symmetry_space_group_name_H-M "C 1 m 1"
_symmetry_Int_Tables_number 8
 
_cell_length_a    9.06175
_cell_length_b    2.79944
_cell_length_c    6.48802
_cell_angle_alpha 90.00000
_cell_angle_beta  129.23591
_cell_angle_gamma 90.00000
 
loop_
_space_group_symop_id
_space_group_symop_operation_xyz
1 x,y,z
2 x,-y,z
3 x+1/2,y+1/2,z
4 x+1/2,-y+1/2,z
 
loop_
_atom_site_label
_atom_site_type_symbol
_atom_site_symmetry_multiplicity
_atom_site_Wyckoff_label
_atom_site_fract_x
_atom_site_fract_y
_atom_site_fract_z
_atom_site_occupancy
Fe1 Fe   2 a -0.00620 0.00000 0.51109  1.00000
Fe2 Fe   2 a 0.58811  0.00000 -0.09325 1.00000
Fe3 Fe   2 a 0.22165  0.00000 0.34744  1.00000
Fe4 Fe   2 a 0.76624  0.00000 0.67550  1.00000
Fe5 Fe   2 a 0.40026  0.00000 0.11600  1.00000
N1  N    2 a -0.00579 0.00000 0.01124  1.00000
 
