# CIF file
# This file was generated by FINDSYM
# Harold T. Stokes, Branton J. Campbell, Dorian M. Hatch
# Brigham Young University, Provo, Utah, USA
 
data_findsym-output
_audit_creation_method FINDSYM
 
_symmetry_space_group_name_H-M "C 1 m 1"
_symmetry_Int_Tables_number 8
 
_cell_length_a    8.87868
_cell_length_b    4.07022
_cell_length_c    7.35365
_cell_angle_alpha 90.00000
_cell_angle_beta  118.82912
_cell_angle_gamma 90.00000
 
loop_
_space_group_symop_id
_space_group_symop_operation_xyz
1 x,y,z
2 x,-y,z
3 x+1/2,y+1/2,z
4 x+1/2,-y+1/2,z
 
loop_
_atom_site_label
_atom_site_type_symbol
_atom_site_symmetry_multiplicity
_atom_site_Wyckoff_label
_atom_site_fract_x
_atom_site_fract_y
_atom_site_fract_z
_atom_site_occupancy
Fe1 Fe   2 a 0.23270 0.00000 0.02277  1.00000
Fe2 Fe   2 a 0.77056 0.00000 0.23813  1.00000
Fe3 Fe   2 a 0.52547 0.00000 0.33050  1.00000
Fe4 Fe   2 a 0.29489 0.00000 0.44391  1.00000
Fe5 Fe   2 a 0.00317 0.00000 0.13556  1.00000
Fe6 Fe   2 a 0.80589 0.00000 0.66101  1.00000
Sb1 Sb   2 a 0.06632 0.00000 0.58254  1.00000
Sb2 Sb   2 a 0.47962 0.00000 -0.09629 1.00000
 
