# CIF file
# This file was generated by FINDSYM
# Harold T. Stokes, Branton J. Campbell, Dorian M. Hatch
# Brigham Young University, Provo, Utah, USA
 
data_findsym-output
_audit_creation_method FINDSYM
 
_symmetry_space_group_name_H-M "C 1 m 1"
_symmetry_Int_Tables_number 8
 
_cell_length_a    8.77319
_cell_length_b    4.08749
_cell_length_c    7.54220
_cell_angle_alpha 90.00000
_cell_angle_beta  122.78216
_cell_angle_gamma 90.00000
 
loop_
_space_group_symop_id
_space_group_symop_operation_xyz
1 x,y,z
2 x,-y,z
3 x+1/2,y+1/2,z
4 x+1/2,-y+1/2,z
 
loop_
_atom_site_label
_atom_site_type_symbol
_atom_site_symmetry_multiplicity
_atom_site_Wyckoff_label
_atom_site_fract_x
_atom_site_fract_y
_atom_site_fract_z
_atom_site_occupancy
Fe1 Fe   2 a 0.71333 0.00000 0.27666  1.00000
Fe2 Fe   2 a 0.39108 0.00000 0.49510  1.00000
Fe3 Fe   2 a 0.38561 0.00000 0.16255  1.00000
Fe4 Fe   2 a 0.00519 0.00000 0.71271  1.00000
Fe5 Fe   2 a 0.05742 0.00000 0.06031  1.00000
Fe6 Fe   2 a 0.37127 0.00000 0.82614  1.00000
Sb1 Sb   2 a 0.07509 0.00000 0.42471  1.00000
Sb2 Sb   2 a 0.70567 0.00000 -0.09516 1.00000
 
