# CIF file
# This file was generated by FINDSYM
# Harold T. Stokes, Branton J. Campbell, Dorian M. Hatch
# Brigham Young University, Provo, Utah, USA
 
data_findsym-output
_audit_creation_method FINDSYM
 
_symmetry_space_group_name_H-M "C 1 m 1"
_symmetry_Int_Tables_number 8
 
_cell_length_a    8.42269
_cell_length_b    4.68995
_cell_length_c    7.35797
_cell_angle_alpha 90.00000
_cell_angle_beta  124.87166
_cell_angle_gamma 90.00000
 
loop_
_space_group_symop_id
_space_group_symop_operation_xyz
1 x,y,z
2 x,-y,z
3 x+1/2,y+1/2,z
4 x+1/2,-y+1/2,z
 
loop_
_atom_site_label
_atom_site_type_symbol
_atom_site_symmetry_multiplicity
_atom_site_Wyckoff_label
_atom_site_fract_x
_atom_site_fract_y
_atom_site_fract_z
_atom_site_occupancy
Fe1 Fe   4 b -0.06676 0.24664 0.49651 1.00000
Fe2 Fe   2 a 0.84250  0.00000 0.14330 1.00000
Fe3 Fe   2 a 0.20206  0.00000 0.83206 1.00000
Fe4 Fe   2 a 0.17855  0.00000 0.48735 1.00000
Fe5 Fe   2 a 0.51439  0.00000 0.83643 1.00000
Nb1 Nb   2 a 0.79497  0.00000 0.73823 1.00000
Nb2 Nb   2 a 0.55673  0.00000 0.24277 1.00000
Nb3 Nb   2 a 0.16819  0.00000 0.12862 1.00000
 
