# CIF file
# This file was generated by FINDSYM
# Harold T. Stokes, Branton J. Campbell, Dorian M. Hatch
# Brigham Young University, Provo, Utah, USA
 
data_findsym-output
_audit_creation_method FINDSYM
 
_symmetry_space_group_name_H-M "P -1"
_symmetry_Int_Tables_number 2
 
_cell_length_a    2.61672
_cell_length_b    4.84006
_cell_length_c    6.27085
_cell_angle_alpha 78.06407
_cell_angle_beta  81.59903
_cell_angle_gamma 79.01901
 
loop_
_space_group_symop_id
_space_group_symop_operation_xyz
1 x,y,z
2 -x,-y,-z
 
loop_
_atom_site_label
_atom_site_type_symbol
_atom_site_symmetry_multiplicity
_atom_site_Wyckoff_label
_atom_site_fract_x
_atom_site_fract_y
_atom_site_fract_z
_atom_site_occupancy
Fe1 Fe   1 a 0.00000 0.00000 0.00000 1.00000
Fe2 Fe   2 i 0.67938 0.67265 0.34805 1.00000
Fe3 Fe   2 i 0.85025 0.84637 0.65894 1.00000
Sc1 Sc   1 e 0.50000 0.50000 0.00000 1.00000
 
