# CIF file
# This file was generated by FINDSYM
# Harold T. Stokes, Branton J. Campbell, Dorian M. Hatch
# Brigham Young University, Provo, Utah, USA
 
data_findsym-output
_audit_creation_method FINDSYM
 
_symmetry_space_group_name_H-M "P 1"
_symmetry_Int_Tables_number 1
 
_cell_length_a    4.78405
_cell_length_b    4.79402
_cell_length_c    5.77176
_cell_angle_alpha 72.26600
_cell_angle_beta  72.44765
_cell_angle_gamma 84.62147
 
loop_
_space_group_symop_id
_space_group_symop_operation_xyz
1 x,y,z
 
loop_
_atom_site_label
_atom_site_type_symbol
_atom_site_symmetry_multiplicity
_atom_site_Wyckoff_label
_atom_site_fract_x
_atom_site_fract_y
_atom_site_fract_z
_atom_site_occupancy
Co1 Co   1 a 0.00024 0.00025  0.00003 1.00000
Fe1 Fe   1 a 0.39232 0.20288  0.10183 1.00000
Fe2 Fe   1 a 0.80002 0.38828  0.20127 1.00000
Fe3 Fe   1 a 0.00305 -0.00398 0.48943 1.00000
Fe4 Fe   1 a 0.79727 0.38725  0.69151 1.00000
Fe5 Fe   1 a 0.39023 0.20029  0.59049 1.00000
Fe6 Fe   1 a 0.59406 0.79556  0.39630 1.00000
Fe7 Fe   1 a 0.18632 0.59373  0.30327 1.00000
Fe8 Fe   1 a 0.18908 0.58847  0.79330 1.00000
Ta1 Ta   1 a 0.59470 0.79568  0.89626 1.00000
 
