# CIF file
# This file was generated by FINDSYM
# Harold T. Stokes, Branton J. Campbell, Dorian M. Hatch
# Brigham Young University, Provo, Utah, USA
 
data_findsym-output
_audit_creation_method FINDSYM
 
_symmetry_space_group_name_H-M "P 1 m 1"
_symmetry_Int_Tables_number 6
 
_cell_length_a    4.80043
_cell_length_b    4.06416
_cell_length_c    6.29456
_cell_angle_alpha 90.00000
_cell_angle_beta  101.79136
_cell_angle_gamma 90.00000
 
loop_
_space_group_symop_id
_space_group_symop_operation_xyz
1 x,y,z
2 x,-y,z
 
loop_
_atom_site_label
_atom_site_type_symbol
_atom_site_symmetry_multiplicity
_atom_site_Wyckoff_label
_atom_site_fract_x
_atom_site_fract_y
_atom_site_fract_z
_atom_site_occupancy
Co1 Co   1 a 0.00085  0.00000 0.00012 1.00000
Fe1 Fe   1 a 0.39969  0.00000 0.80537 1.00000
Fe2 Fe   1 b 0.49709  0.50000 0.51079 1.00000
Fe3 Fe   1 b 0.69878  0.50000 0.89710 1.00000
Fe4 Fe   1 b 0.10443  0.50000 0.71135 1.00000
Fe5 Fe   1 a 0.21372  0.00000 0.40979 1.00000
Fe6 Fe   1 a 0.80248  0.00000 0.60886 1.00000
Fe7 Fe   1 b 0.30490  0.50000 0.09797 1.00000
Fe8 Fe   1 a 0.58948  0.00000 0.19947 1.00000
Ta1 Ta   1 b -0.09901 0.50000 0.30493 1.00000
 
