# CIF file
# This file was generated by FINDSYM
# Harold T. Stokes, Branton J. Campbell, Dorian M. Hatch
# Brigham Young University, Provo, Utah, USA
 
data_findsym-output
_audit_creation_method FINDSYM
 
_symmetry_space_group_name_H-M "R 3 m (hexagonal axes)"
_symmetry_Int_Tables_number 160
 
_cell_length_a    4.07109
_cell_length_b    4.07109
_cell_length_c    25.07454
_cell_angle_alpha 90.00000
_cell_angle_beta  90.00000
_cell_angle_gamma 120.00000
 
loop_
_space_group_symop_id
_space_group_symop_operation_xyz
1 x,y,z
2 -y,x-y,z
3 -x+y,-x,z
4 -y,-x,z
5 x,x-y,z
6 -x+y,y,z
7 x+1/3,y+2/3,z+2/3
8 -y+1/3,x-y+2/3,z+2/3
9 -x+y+1/3,-x+2/3,z+2/3
10 -y+1/3,-x+2/3,z+2/3
11 x+1/3,x-y+2/3,z+2/3
12 -x+y+1/3,y+2/3,z+2/3
13 x+2/3,y+1/3,z+1/3
14 -y+2/3,x-y+1/3,z+1/3
15 -x+y+2/3,-x+1/3,z+1/3
16 -y+2/3,-x+1/3,z+1/3
17 x+2/3,x-y+1/3,z+1/3
18 -x+y+2/3,y+1/3,z+1/3
 
loop_
_atom_site_label
_atom_site_type_symbol
_atom_site_symmetry_multiplicity
_atom_site_Wyckoff_label
_atom_site_fract_x
_atom_site_fract_y
_atom_site_fract_z
_atom_site_occupancy
Co1 Co   3 a 0.00000 0.00000 -0.00004 1.00000
Fe1 Fe   3 a 0.00000 0.00000 0.39874  1.00000
Fe2 Fe   3 a 0.00000 0.00000 -0.09726 1.00000
Fe3 Fe   3 a 0.00000 0.00000 0.49611  1.00000
Fe4 Fe   3 a 0.00000 0.00000 0.30195  1.00000
Fe5 Fe   3 a 0.00000 0.00000 0.79690  1.00000
Fe6 Fe   3 a 0.00000 0.00000 0.69883  1.00000
Fe7 Fe   3 a 0.00000 0.00000 0.09624  1.00000
Fe8 Fe   3 a 0.00000 0.00000 0.60089  1.00000
Ta1 Ta   3 a 0.00000 0.00000 0.19903  1.00000
 
