# CIF file
# This file was generated by FINDSYM
# Harold T. Stokes, Branton J. Campbell, Dorian M. Hatch
# Brigham Young University, Provo, Utah, USA
 
data_findsym-output
_audit_creation_method FINDSYM
 
_symmetry_space_group_name_H-M "P -1"
_symmetry_Int_Tables_number 2
 
_cell_length_a    4.78424
_cell_length_b    4.79455
_cell_length_c    5.77053
_cell_angle_alpha 72.33861
_cell_angle_beta  72.51285
_cell_angle_gamma 84.73185
 
loop_
_space_group_symop_id
_space_group_symop_operation_xyz
1 x,y,z
2 -x,-y,-z
 
loop_
_atom_site_label
_atom_site_type_symbol
_atom_site_symmetry_multiplicity
_atom_site_Wyckoff_label
_atom_site_fract_x
_atom_site_fract_y
_atom_site_fract_z
_atom_site_occupancy
Co1 Co   1 a 0.00000 0.00000 0.00000  1.00000
Fe1 Fe   2 i 0.40563 0.20525 0.60351  1.00000
Fe2 Fe   2 i 0.59241 0.79871 -0.09256 1.00000
Fe3 Fe   2 i 0.79619 0.40526 0.19365  1.00000
Fe4 Fe   2 i 0.20233 0.59240 0.29448  1.00000
Ta1 Ta   1 b 0.00000 0.00000 0.50000  1.00000
 
