# CIF file
# This file was generated by FINDSYM
# Harold T. Stokes, Branton J. Campbell, Dorian M. Hatch
# Brigham Young University, Provo, Utah, USA
 
data_findsym-output
_audit_creation_method FINDSYM
 
_symmetry_space_group_name_H-M "C 1 m 1"
_symmetry_Int_Tables_number 8
 
_cell_length_a    12.27753
_cell_length_b    4.06085
_cell_length_c    4.99996
_cell_angle_alpha 90.00000
_cell_angle_beta  106.01107
_cell_angle_gamma 90.00000
 
loop_
_space_group_symop_id
_space_group_symop_operation_xyz
1 x,y,z
2 x,-y,z
3 x+1/2,y+1/2,z
4 x+1/2,-y+1/2,z
 
loop_
_atom_site_label
_atom_site_type_symbol
_atom_site_symmetry_multiplicity
_atom_site_Wyckoff_label
_atom_site_fract_x
_atom_site_fract_y
_atom_site_fract_z
_atom_site_occupancy
Co1 Co   2 a -0.00003 0.00000 0.00012  1.00000
Fe1 Fe   2 a 0.00268  0.00000 0.50819  1.00000
Fe2 Fe   2 a 0.60340  0.00000 -0.09387 1.00000
Fe3 Fe   2 a 0.59954  0.00000 0.41376  1.00000
Fe4 Fe   2 a 0.40584  0.00000 0.10651  1.00000
Fe5 Fe   2 a 0.80464  0.00000 0.70637  1.00000
Fe6 Fe   2 a 0.40813  0.00000 0.61283  1.00000
Fe7 Fe   2 a 0.80853  0.00000 0.20049  1.00000
Fe8 Fe   2 a 0.20431  0.00000 0.80688  1.00000
Ta1 Ta   2 a 0.20440  0.00000 0.30710  1.00000
 
