# CIF file
# This file was generated by FINDSYM
# Harold T. Stokes, Branton J. Campbell, Dorian M. Hatch
# Brigham Young University, Provo, Utah, USA
 
data_findsym-output
_audit_creation_method FINDSYM
 
_symmetry_space_group_name_H-M "C 1 m 1"
_symmetry_Int_Tables_number 8
 
_cell_length_a    11.91035
_cell_length_b    4.07046
_cell_length_c    5.00274
_cell_angle_alpha 90.00000
_cell_angle_beta  97.71146
_cell_angle_gamma 90.00000
 
loop_
_space_group_symop_id
_space_group_symop_operation_xyz
1 x,y,z
2 x,-y,z
3 x+1/2,y+1/2,z
4 x+1/2,-y+1/2,z
 
loop_
_atom_site_label
_atom_site_type_symbol
_atom_site_symmetry_multiplicity
_atom_site_Wyckoff_label
_atom_site_fract_x
_atom_site_fract_y
_atom_site_fract_z
_atom_site_occupancy
Co1 Co   2 a 0.00020  0.00000 0.00044  1.00000
Fe1 Fe   2 a 0.59735  0.00000 0.18846  1.00000
Fe2 Fe   2 a 0.80398  0.00000 0.10283  1.00000
Fe3 Fe   2 a 0.60096  0.00000 0.70058  1.00000
Fe4 Fe   2 a -0.00185 0.00000 0.50474  1.00000
Fe5 Fe   2 a 0.40576  0.00000 0.30172  1.00000
Fe6 Fe   2 a 0.20195  0.00000 -0.09767 1.00000
Fe7 Fe   2 a 0.40416  0.00000 0.80435  1.00000
Fe8 Fe   2 a 0.80556  0.00000 0.61402  1.00000
Ta1 Ta   2 a 0.20264  0.00000 0.40277  1.00000
 
