# CIF file
# This file was generated by FINDSYM
# Harold T. Stokes, Branton J. Campbell, Dorian M. Hatch
# Brigham Young University, Provo, Utah, USA
 
data_findsym-output
_audit_creation_method FINDSYM
 
_symmetry_space_group_name_H-M "P 1"
_symmetry_Int_Tables_number 1
 
_cell_length_a    4.62397
_cell_length_b    4.70952
_cell_length_c    6.03485
_cell_angle_alpha 72.10874
_cell_angle_beta  74.45812
_cell_angle_gamma 87.74834
 
loop_
_space_group_symop_id
_space_group_symop_operation_xyz
1 x,y,z
 
loop_
_atom_site_label
_atom_site_type_symbol
_atom_site_symmetry_multiplicity
_atom_site_Wyckoff_label
_atom_site_fract_x
_atom_site_fract_y
_atom_site_fract_z
_atom_site_occupancy
Co1 Co   1 a 0.00080  0.00125  -0.00074 1.00000
Fe1 Fe   1 a 0.75827  -0.03916 0.69564  1.00000
Fe2 Fe   1 a 0.11633  0.80588  0.38769  1.00000
Fe3 Fe   1 a 0.61690  0.80784  0.39100  1.00000
Fe4 Fe   1 a 0.20505  0.62473  0.80496  1.00000
Fe5 Fe   1 a -0.08119 0.37284  0.24936  1.00000
Fe6 Fe   1 a 0.77218  0.44714  0.71020  1.00000
Fe7 Fe   1 a 0.45182  0.16636  0.06415  1.00000
Fe8 Fe   1 a 0.49292  0.64959  0.07868  1.00000
Ta1 Ta   1 a 0.32422  0.24579  0.53547  1.00000
 
