# CIF file
# This file was generated by FINDSYM
# Harold T. Stokes, Branton J. Campbell, Dorian M. Hatch
# Brigham Young University, Provo, Utah, USA
 
data_findsym-output
_audit_creation_method FINDSYM
 
_symmetry_space_group_name_H-M "C 1 m 1"
_symmetry_Int_Tables_number 8
 
_cell_length_a    9.06139
_cell_length_b    2.93024
_cell_length_c    9.08568
_cell_angle_alpha 90.00000
_cell_angle_beta  90.10645
_cell_angle_gamma 90.00000
 
loop_
_space_group_symop_id
_space_group_symop_operation_xyz
1 x,y,z
2 x,-y,z
3 x+1/2,y+1/2,z
4 x+1/2,-y+1/2,z
 
loop_
_atom_site_label
_atom_site_type_symbol
_atom_site_symmetry_multiplicity
_atom_site_Wyckoff_label
_atom_site_fract_x
_atom_site_fract_y
_atom_site_fract_z
_atom_site_occupancy
Co1 Co   2 a -0.00013 0.00000 -0.00033 1.00000
Fe1 Fe   2 a 0.20166  0.00000 0.38469  1.00000
Fe2 Fe   2 a 0.50359  0.00000 0.48351  1.00000
Fe3 Fe   2 a 0.29822  0.00000 0.09107  1.00000
Fe4 Fe   2 a 0.10870  0.00000 0.68134  1.00000
Fe5 Fe   2 a 0.80127  0.00000 0.57596  1.00000
Fe6 Fe   2 a 0.69301  0.00000 0.89495  1.00000
Fe7 Fe   2 a -0.09973 0.00000 0.28726  1.00000
Fe8 Fe   2 a 0.59934  0.00000 0.19040  1.00000
Ta1 Ta   2 a 0.40106  0.00000 0.78616  1.00000
 
