# CIF file
# This file was generated by FINDSYM
# Harold T. Stokes, Branton J. Campbell, Dorian M. Hatch
# Brigham Young University, Provo, Utah, USA
 
data_findsym-output
_audit_creation_method FINDSYM
 
_symmetry_space_group_name_H-M "C 1 m 1"
_symmetry_Int_Tables_number 8
 
_cell_length_a    8.30447
_cell_length_b    4.74093
_cell_length_c    7.03575
_cell_angle_alpha 90.00000
_cell_angle_beta  119.91536
_cell_angle_gamma 90.00000
 
loop_
_space_group_symop_id
_space_group_symop_operation_xyz
1 x,y,z
2 x,-y,z
3 x+1/2,y+1/2,z
4 x+1/2,-y+1/2,z
 
loop_
_atom_site_label
_atom_site_type_symbol
_atom_site_symmetry_multiplicity
_atom_site_Wyckoff_label
_atom_site_fract_x
_atom_site_fract_y
_atom_site_fract_z
_atom_site_occupancy
Co1 Co   2 a 0.00019  0.00000 -0.00004 1.00000
Fe1 Fe   2 a -0.03065 0.00000 0.31715  1.00000
Fe2 Fe   4 b 0.68292  0.23930 0.62930  1.00000
Fe3 Fe   2 a 0.47166  0.00000 0.82663  1.00000
Fe4 Fe   2 a -0.05879 0.00000 0.63807  1.00000
Fe5 Fe   4 b 0.75892  0.25963 0.00570  1.00000
Fe6 Fe   2 a 0.60281  0.00000 0.24126  1.00000
Ta1 Ta   2 a 0.33232  0.00000 0.39221  1.00000
 
