# CIF file
# This file was generated by FINDSYM
# Harold T. Stokes, Branton J. Campbell, Dorian M. Hatch
# Brigham Young University, Provo, Utah, USA
 
data_findsym-output
_audit_creation_method FINDSYM
 
_symmetry_space_group_name_H-M "C 1 m 1"
_symmetry_Int_Tables_number 8
 
_cell_length_a    12.29680
_cell_length_b    4.06233
_cell_length_c    5.00283
_cell_angle_alpha 90.00000
_cell_angle_beta  106.17971
_cell_angle_gamma 90.00000
 
loop_
_space_group_symop_id
_space_group_symop_operation_xyz
1 x,y,z
2 x,-y,z
3 x+1/2,y+1/2,z
4 x+1/2,-y+1/2,z
 
loop_
_atom_site_label
_atom_site_type_symbol
_atom_site_symmetry_multiplicity
_atom_site_Wyckoff_label
_atom_site_fract_x
_atom_site_fract_y
_atom_site_fract_z
_atom_site_occupancy
Co1 Co   2 a 0.00008  0.00000 0.00015  1.00000
Fe1 Fe   2 a 0.60122  0.00000 0.40148  1.00000
Fe2 Fe   2 a 0.59593  0.00000 -0.09426 1.00000
Fe3 Fe   2 a 0.40609  0.00000 0.10507  1.00000
Fe4 Fe   2 a 0.40261  0.00000 0.59631  1.00000
Fe5 Fe   2 a -0.00284 0.00000 0.49121  1.00000
Fe6 Fe   2 a 0.80144  0.00000 0.19797  1.00000
Fe7 Fe   2 a 0.20134  0.00000 0.29850  1.00000
Fe8 Fe   2 a 0.80687  0.00000 0.69298  1.00000
Ta1 Ta   2 a 0.20162  0.00000 0.79847  1.00000
 
