# CIF file
# This file was generated by FINDSYM
# Harold T. Stokes, Branton J. Campbell, Dorian M. Hatch
# Brigham Young University, Provo, Utah, USA
 
data_findsym-output
_audit_creation_method FINDSYM
 
_symmetry_space_group_name_H-M "P 1"
_symmetry_Int_Tables_number 1
 
_cell_length_a    4.63726
_cell_length_b    4.70334
_cell_length_c    6.01366
_cell_angle_alpha 71.82339
_cell_angle_beta  75.00322
_cell_angle_gamma 87.79226
 
loop_
_space_group_symop_id
_space_group_symop_operation_xyz
1 x,y,z
 
loop_
_atom_site_label
_atom_site_type_symbol
_atom_site_symmetry_multiplicity
_atom_site_Wyckoff_label
_atom_site_fract_x
_atom_site_fract_y
_atom_site_fract_z
_atom_site_occupancy
Co1 Co   1 a 0.00134 0.00064  -0.00045 1.00000
Fe1 Fe   1 a 0.76816 0.45267  0.72805  1.00000
Fe2 Fe   1 a 0.10244 0.81455  0.40490  1.00000
Fe3 Fe   1 a 0.59906 0.81729  0.40417  1.00000
Fe4 Fe   1 a 0.73835 -0.03268 0.71439  1.00000
Fe5 Fe   1 a 0.46048 0.66214  0.09777  1.00000
Fe6 Fe   1 a 0.44282 0.17591  0.08080  1.00000
Fe7 Fe   1 a 0.30591 0.24643  0.55366  1.00000
Fe8 Fe   1 a 0.21640 0.62691  0.79957  1.00000
Ta1 Ta   1 a 0.89482 0.37776  0.26028  1.00000
 
