# CIF file
# This file was generated by FINDSYM
# Harold T. Stokes, Branton J. Campbell, Dorian M. Hatch
# Brigham Young University, Provo, Utah, USA
 
data_findsym-output
_audit_creation_method FINDSYM
 
_symmetry_space_group_name_H-M "P 1"
_symmetry_Int_Tables_number 1
 
_cell_length_a    4.73743
_cell_length_b    4.75475
_cell_length_c    6.55660
_cell_angle_alpha 85.55351
_cell_angle_beta  69.81481
_cell_angle_gamma 60.42642
 
loop_
_space_group_symop_id
_space_group_symop_operation_xyz
1 x,y,z
 
loop_
_atom_site_label
_atom_site_type_symbol
_atom_site_symmetry_multiplicity
_atom_site_Wyckoff_label
_atom_site_fract_x
_atom_site_fract_y
_atom_site_fract_z
_atom_site_occupancy
Co1 Co   1 a -0.00009 0.00044 0.00003 1.00000
Fe1 Fe   1 a 0.84309  0.60238 0.17663 1.00000
Fe2 Fe   1 a 0.35234  0.11361 0.17352 1.00000
Fe3 Fe   1 a 0.36085  0.60261 0.17815 1.00000
Fe4 Fe   1 a 0.71782  0.14697 0.41400 1.00000
Fe5 Fe   1 a 0.00793  0.49518 0.48965 1.00000
Fe6 Fe   1 a 0.65904  0.37918 0.80106 1.00000
Fe7 Fe   1 a 0.17794  0.37998 0.80307 1.00000
Fe8 Fe   1 a 0.66385  0.87287 0.81046 1.00000
Ta1 Ta   1 a 0.29910  0.84245 0.56474 1.00000
 
