# CIF file
# This file was generated by FINDSYM
# Harold T. Stokes, Branton J. Campbell, Dorian M. Hatch
# Brigham Young University, Provo, Utah, USA
 
data_findsym-output
_audit_creation_method FINDSYM
 
_symmetry_space_group_name_H-M "P 1 m 1"
_symmetry_Int_Tables_number 6
 
_cell_length_a    4.79909
_cell_length_b    4.05823
_cell_length_c    6.30329
_cell_angle_alpha 90.00000
_cell_angle_beta  101.77679
_cell_angle_gamma 90.00000
 
loop_
_space_group_symop_id
_space_group_symop_operation_xyz
1 x,y,z
2 x,-y,z
 
loop_
_atom_site_label
_atom_site_type_symbol
_atom_site_symmetry_multiplicity
_atom_site_Wyckoff_label
_atom_site_fract_x
_atom_site_fract_y
_atom_site_fract_z
_atom_site_occupancy
Co1 Co   1 a 0.00007 0.00000 -0.00014 1.00000
Fe1 Fe   1 b 0.10931 0.50000 0.69635  1.00000
Fe2 Fe   1 b 0.48435 0.50000 0.48725  1.00000
Fe3 Fe   1 a 0.20052 0.00000 0.38528  1.00000
Fe4 Fe   1 b 0.89569 0.50000 0.28870  1.00000
Fe5 Fe   1 a 0.39195 0.00000 0.79870  1.00000
Fe6 Fe   1 b 0.69742 0.50000 0.89614  1.00000
Fe7 Fe   1 b 0.29565 0.50000 0.09160  1.00000
Fe8 Fe   1 a 0.59558 0.00000 0.18400  1.00000
Ta1 Ta   1 a 0.79692 0.00000 0.59159  1.00000
 
