# CIF file
# This file was generated by FINDSYM
# Harold T. Stokes, Branton J. Campbell, Dorian M. Hatch
# Brigham Young University, Provo, Utah, USA
 
data_findsym-output
_audit_creation_method FINDSYM
 
_symmetry_space_group_name_H-M "C 1 m 1"
_symmetry_Int_Tables_number 8
 
_cell_length_a    8.66124
_cell_length_b    4.06704
_cell_length_c    7.07234
_cell_angle_alpha 90.00000
_cell_angle_beta  105.36050
_cell_angle_gamma 90.00000
 
loop_
_space_group_symop_id
_space_group_symop_operation_xyz
1 x,y,z
2 x,-y,z
3 x+1/2,y+1/2,z
4 x+1/2,-y+1/2,z
 
loop_
_atom_site_label
_atom_site_type_symbol
_atom_site_symmetry_multiplicity
_atom_site_Wyckoff_label
_atom_site_fract_x
_atom_site_fract_y
_atom_site_fract_z
_atom_site_occupancy
Co1 Co   2 a 0.00009  0.00000 0.00009 1.00000
Fe1 Fe   2 a 0.20788  0.00000 0.41308 1.00000
Fe2 Fe   2 a 0.69888  0.00000 0.89450 1.00000
Fe3 Fe   2 a 0.40499  0.00000 0.79716 1.00000
Fe4 Fe   2 a 0.80536  0.00000 0.60496 1.00000
Fe5 Fe   2 a 0.61302  0.00000 0.20965 1.00000
Fe6 Fe   2 a -0.08635 0.00000 0.31487 1.00000
Fe7 Fe   2 a 0.50840  0.00000 0.50577 1.00000
Fe8 Fe   2 a 0.10322  0.00000 0.70424 1.00000
Ta1 Ta   2 a 0.30562  0.00000 0.10457 1.00000
 
