# CIF file
# This file was generated by FINDSYM
# Harold T. Stokes, Branton J. Campbell, Dorian M. Hatch
# Brigham Young University, Provo, Utah, USA
 
data_findsym-output
_audit_creation_method FINDSYM
 
_symmetry_space_group_name_H-M "P 1"
_symmetry_Int_Tables_number 1
 
_cell_length_a    4.58475
_cell_length_b    4.73125
_cell_length_c    6.12200
_cell_angle_alpha 72.51208
_cell_angle_beta  73.05599
_cell_angle_gamma 87.47981
 
loop_
_space_group_symop_id
_space_group_symop_operation_xyz
1 x,y,z
 
loop_
_atom_site_label
_atom_site_type_symbol
_atom_site_symmetry_multiplicity
_atom_site_Wyckoff_label
_atom_site_fract_x
_atom_site_fract_y
_atom_site_fract_z
_atom_site_occupancy
Co1 Co   1 a -0.00042 -0.00034 0.00016  1.00000
Fe1 Fe   1 a 0.24497  0.54934  0.29039  1.00000
Fe2 Fe   1 a 0.73723  0.19707  0.37246  1.00000
Fe3 Fe   1 a -0.01858 0.51500  -0.00797 1.00000
Fe4 Fe   1 a 0.35201  0.35711  0.68343  1.00000
Fe5 Fe   1 a 0.42855  0.16582  0.10121  1.00000
Fe6 Fe   1 a 0.85300  0.35617  0.68581  1.00000
Fe7 Fe   1 a 0.69358  0.71583  0.36050  1.00000
Fe8 Fe   1 a 0.15852  -0.07836 0.54767  1.00000
Ta1 Ta   1 a 0.55321  0.79680  0.82371  1.00000
 
