# CIF file
# This file was generated by FINDSYM
# Harold T. Stokes, Branton J. Campbell, Dorian M. Hatch
# Brigham Young University, Provo, Utah, USA
 
data_findsym-output
_audit_creation_method FINDSYM
 
_symmetry_space_group_name_H-M "P 1 m 1"
_symmetry_Int_Tables_number 6
 
_cell_length_a    4.80130
_cell_length_b    4.06934
_cell_length_c    6.28662
_cell_angle_alpha 90.00000
_cell_angle_beta  101.79109
_cell_angle_gamma 90.00000
 
loop_
_space_group_symop_id
_space_group_symop_operation_xyz
1 x,y,z
2 x,-y,z
 
loop_
_atom_site_label
_atom_site_type_symbol
_atom_site_symmetry_multiplicity
_atom_site_Wyckoff_label
_atom_site_fract_x
_atom_site_fract_y
_atom_site_fract_z
_atom_site_occupancy
Co1 Co   1 a -0.00028 0.00000 0.00002 1.00000
Fe1 Fe   1 a 0.41161  0.00000 0.80252 1.00000
Fe2 Fe   1 b 0.71560  0.50000 0.89891 1.00000
Fe3 Fe   1 a 0.62628  0.00000 0.20978 1.00000
Fe4 Fe   1 b -0.09239 0.50000 0.31141 1.00000
Fe5 Fe   1 a 0.21382  0.00000 0.40968 1.00000
Fe6 Fe   1 b 0.10974  0.50000 0.69823 1.00000
Fe7 Fe   1 a 0.81368  0.00000 0.60580 1.00000
Fe8 Fe   1 b 0.51505  0.50000 0.51244 1.00000
Ta1 Ta   1 b 0.31208  0.50000 0.10592 1.00000
 
