# CIF file
# This file was generated by FINDSYM
# Harold T. Stokes, Branton J. Campbell, Dorian M. Hatch
# Brigham Young University, Provo, Utah, USA
 
data_findsym-output
_audit_creation_method FINDSYM
 
_symmetry_space_group_name_H-M "P 1 m 1"
_symmetry_Int_Tables_number 6
 
_cell_length_a    4.88081
_cell_length_b    3.75517
_cell_length_c    4.88527
_cell_angle_alpha 90.00000
_cell_angle_beta  106.34258
_cell_angle_gamma 90.00000
 
loop_
_space_group_symop_id
_space_group_symop_operation_xyz
1 x,y,z
2 x,-y,z
 
loop_
_atom_site_label
_atom_site_type_symbol
_atom_site_symmetry_multiplicity
_atom_site_Wyckoff_label
_atom_site_fract_x
_atom_site_fract_y
_atom_site_fract_z
_atom_site_occupancy
Fe1 Fe   1 a 0.03306  0.00000 0.35334 1.00000
Fe2 Fe   1 b 0.73465  0.50000 0.03109 1.00000
Fe3 Fe   1 a -0.02374 0.00000 0.85935 1.00000
Ge1 Ge   1 a 0.44296  0.00000 0.76319 1.00000
Ge2 Ge   1 b 0.82440  0.50000 0.54100 1.00000
Ge3 Ge   1 b 0.27736  0.50000 0.16335 1.00000
 
