# CIF file
# This file was generated by FINDSYM
# Harold T. Stokes, Branton J. Campbell, Dorian M. Hatch
# Brigham Young University, Provo, Utah, USA
 
data_findsym-output
_audit_creation_method FINDSYM
 
_symmetry_space_group_name_H-M "A m m 2"
_symmetry_Int_Tables_number 38
 
_cell_length_a    3.22406
_cell_length_b    3.18074
_cell_length_c    15.79439
_cell_angle_alpha 90.00000
_cell_angle_beta  90.00000
_cell_angle_gamma 90.00000
 
loop_
_space_group_symop_id
_space_group_symop_operation_xyz
1 x,y,z
2 -x,-y,z
3 x,-y,z
4 -x,y,z
5 x,y+1/2,z+1/2
6 -x,-y+1/2,z+1/2
7 x,-y+1/2,z+1/2
8 -x,y+1/2,z+1/2
 
loop_
_atom_site_label
_atom_site_type_symbol
_atom_site_symmetry_multiplicity
_atom_site_Wyckoff_label
_atom_site_fract_x
_atom_site_fract_y
_atom_site_fract_z
_atom_site_occupancy
Fe1 Fe   2 b 0.50000 0.00000 0.44619 1.00000
Fe2 Fe   2 a 0.00000 0.00000 0.85360 1.00000
Fe3 Fe   2 a 0.00000 0.00000 0.17812 1.00000
Ge1 Ge   2 b 0.50000 0.00000 0.61819 1.00000
Ge2 Ge   2 b 0.50000 0.00000 0.29024 1.00000
Ge3 Ge   2 a 0.00000 0.00000 0.01353 1.00000
 
