# CIF file
# This file was generated by FINDSYM
# Harold T. Stokes, Branton J. Campbell, Dorian M. Hatch
# Brigham Young University, Provo, Utah, USA
 
data_findsym-output
_audit_creation_method FINDSYM
 
_symmetry_space_group_name_H-M "I 4 m m"
_symmetry_Int_Tables_number 107
 
_cell_length_a    2.90566
_cell_length_b    2.90566
_cell_length_c    19.33909
_cell_angle_alpha 90.00000
_cell_angle_beta  90.00000
_cell_angle_gamma 90.00000
 
loop_
_space_group_symop_id
_space_group_symop_operation_xyz
1 x,y,z
2 -x,-y,z
3 -y,x,z
4 y,-x,z
5 -x,y,z
6 x,-y,z
7 y,x,z
8 -y,-x,z
9 x+1/2,y+1/2,z+1/2
10 -x+1/2,-y+1/2,z+1/2
11 -y+1/2,x+1/2,z+1/2
12 y+1/2,-x+1/2,z+1/2
13 -x+1/2,y+1/2,z+1/2
14 x+1/2,-y+1/2,z+1/2
15 y+1/2,x+1/2,z+1/2
16 -y+1/2,-x+1/2,z+1/2
 
loop_
_atom_site_label
_atom_site_type_symbol
_atom_site_symmetry_multiplicity
_atom_site_Wyckoff_label
_atom_site_fract_x
_atom_site_fract_y
_atom_site_fract_z
_atom_site_occupancy
Fe1 Fe   2 a 0.00000 0.00000 0.38468  1.00000
Fe2 Fe   2 a 0.00000 0.00000 0.23232  1.00000
Fe3 Fe   2 a 0.00000 0.00000 -0.04388 1.00000
Ge1 Ge   2 a 0.00000 0.00000 0.65986  1.00000
Ge2 Ge   2 a 0.00000 0.00000 0.81038  1.00000
Ge3 Ge   2 a 0.00000 0.00000 0.52925  1.00000
 
