# CIF file
# This file was generated by FINDSYM
# Harold T. Stokes, Branton J. Campbell, Dorian M. Hatch
# Brigham Young University, Provo, Utah, USA
 
data_findsym-output
_audit_creation_method FINDSYM
 
_symmetry_space_group_name_H-M "C 1 m 1"
_symmetry_Int_Tables_number 8
 
_cell_length_a    8.75441
_cell_length_b    3.08347
_cell_length_c    6.16983
_cell_angle_alpha 90.00000
_cell_angle_beta  99.91650
_cell_angle_gamma 90.00000
 
loop_
_space_group_symop_id
_space_group_symop_operation_xyz
1 x,y,z
2 x,-y,z
3 x+1/2,y+1/2,z
4 x+1/2,-y+1/2,z
 
loop_
_atom_site_label
_atom_site_type_symbol
_atom_site_symmetry_multiplicity
_atom_site_Wyckoff_label
_atom_site_fract_x
_atom_site_fract_y
_atom_site_fract_z
_atom_site_occupancy
Fe1 Fe   2 a 0.30445 0.00000 0.56119 1.00000
Fe2 Fe   2 a 0.75643 0.00000 0.88280 1.00000
Fe3 Fe   2 a 0.11449 0.00000 0.16988 1.00000
Ge1 Ge   2 a 0.84500 0.00000 0.27349 1.00000
Ge2 Ge   2 a 0.58603 0.00000 0.50160 1.00000
Ge3 Ge   2 a 0.47958 0.00000 0.89972 1.00000
 
