# CIF file
# This file was generated by FINDSYM
# Harold T. Stokes, Branton J. Campbell, Dorian M. Hatch
# Brigham Young University, Provo, Utah, USA
 
data_findsym-output
_audit_creation_method FINDSYM
 
_symmetry_space_group_name_H-M "C 1 m 1"
_symmetry_Int_Tables_number 8
 
_cell_length_a    11.81932
_cell_length_b    4.08650
_cell_length_c    4.89454
_cell_angle_alpha 90.00000
_cell_angle_beta  108.96619
_cell_angle_gamma 90.00000
 
loop_
_space_group_symop_id
_space_group_symop_operation_xyz
1 x,y,z
2 x,-y,z
3 x+1/2,y+1/2,z
4 x+1/2,-y+1/2,z
 
loop_
_atom_site_label
_atom_site_type_symbol
_atom_site_symmetry_multiplicity
_atom_site_Wyckoff_label
_atom_site_fract_x
_atom_site_fract_y
_atom_site_fract_z
_atom_site_occupancy
Fe1 Fe   2 a 0.85795  0.00000 0.03984  1.00000
Fe2 Fe   2 a 0.70009  0.00000 0.33122  1.00000
Fe3 Fe   2 a 0.48208  0.00000 -0.02963 1.00000
Fe4 Fe   2 a 0.27006  0.00000 0.65176  1.00000
Ge1 Ge   2 a -0.07470 0.00000 0.62402  1.00000
Ge2 Ge   2 a 0.06820  0.00000 0.28758  1.00000
Ge3 Ge   2 a 0.30737  0.00000 0.19161  1.00000
Ge4 Ge   2 a 0.64379  0.00000 0.77452  1.00000
 
