# CIF file
# This file was generated by FINDSYM
# Harold T. Stokes, Branton J. Campbell, Dorian M. Hatch
# Brigham Young University, Provo, Utah, USA
 
data_findsym-output
_audit_creation_method FINDSYM
 
_symmetry_space_group_name_H-M "C 1 m 1"
_symmetry_Int_Tables_number 8
 
_cell_length_a    11.99992
_cell_length_b    4.02020
_cell_length_c    4.89280
_cell_angle_alpha 90.00000
_cell_angle_beta  103.02265
_cell_angle_gamma 90.00000
 
loop_
_space_group_symop_id
_space_group_symop_operation_xyz
1 x,y,z
2 x,-y,z
3 x+1/2,y+1/2,z
4 x+1/2,-y+1/2,z
 
loop_
_atom_site_label
_atom_site_type_symbol
_atom_site_symmetry_multiplicity
_atom_site_Wyckoff_label
_atom_site_fract_x
_atom_site_fract_y
_atom_site_fract_z
_atom_site_occupancy
Fe1 Fe   2 a 0.35171  0.00000 0.38515 1.00000
Fe2 Fe   2 a 0.14712  0.00000 0.05720 1.00000
Fe3 Fe   2 a 0.33931  0.00000 0.87614 1.00000
Fe4 Fe   2 a -0.03737 0.00000 0.24471 1.00000
Ge1 Ge   2 a 0.75924  0.00000 0.05614 1.00000
Ge2 Ge   2 a 0.53867  0.00000 0.11507 1.00000
Ge3 Ge   2 a 0.15742  0.00000 0.56215 1.00000
Ge4 Ge   2 a -0.07296 0.00000 0.70530 1.00000
 
