# CIF file
# This file was generated by FINDSYM
# Harold T. Stokes, Branton J. Campbell, Dorian M. Hatch
# Brigham Young University, Provo, Utah, USA
 
data_findsym-output
_audit_creation_method FINDSYM
 
_symmetry_space_group_name_H-M "C 1 m 1"
_symmetry_Int_Tables_number 8
 
_cell_length_a    11.80884
_cell_length_b    4.12120
_cell_length_c    4.83518
_cell_angle_alpha 90.00000
_cell_angle_beta  105.69068
_cell_angle_gamma 90.00000
 
loop_
_space_group_symop_id
_space_group_symop_operation_xyz
1 x,y,z
2 x,-y,z
3 x+1/2,y+1/2,z
4 x+1/2,-y+1/2,z
 
loop_
_atom_site_label
_atom_site_type_symbol
_atom_site_symmetry_multiplicity
_atom_site_Wyckoff_label
_atom_site_fract_x
_atom_site_fract_y
_atom_site_fract_z
_atom_site_occupancy
Fe1 Fe   2 a 0.13678  0.00000 0.01169  1.00000
Fe2 Fe   2 a 0.33438  0.00000 0.80349  1.00000
Fe3 Fe   2 a 0.52276  0.00000 0.63872  1.00000
Fe4 Fe   2 a 0.73752  0.00000 -0.09027 1.00000
Ge1 Ge   2 a 0.13298  0.00000 0.51658  1.00000
Ge2 Ge   2 a 0.33421  0.00000 0.28885  1.00000
Ge3 Ge   2 a 0.55756  0.00000 0.15989  1.00000
Ge4 Ge   2 a -0.07117 0.00000 0.76677  1.00000
 
