# CIF file
# This file was generated by FINDSYM
# Harold T. Stokes, Branton J. Campbell, Dorian M. Hatch
# Brigham Young University, Provo, Utah, USA
 
data_findsym-output
_audit_creation_method FINDSYM
 
_symmetry_space_group_name_H-M "C 1 m 1"
_symmetry_Int_Tables_number 8
 
_cell_length_a    16.38231
_cell_length_b    4.66667
_cell_length_c    4.68577
_cell_angle_alpha 90.00000
_cell_angle_beta  100.80755
_cell_angle_gamma 90.00000
 
loop_
_space_group_symop_id
_space_group_symop_operation_xyz
1 x,y,z
2 x,-y,z
3 x+1/2,y+1/2,z
4 x+1/2,-y+1/2,z
 
loop_
_atom_site_label
_atom_site_type_symbol
_atom_site_symmetry_multiplicity
_atom_site_Wyckoff_label
_atom_site_fract_x
_atom_site_fract_y
_atom_site_fract_z
_atom_site_occupancy
Co1 Co   4 b 0.85357  0.25770 -0.06839 1.00000
Co2 Co   2 a 0.49014  0.00000 0.20943  1.00000
Co3 Co   2 a 0.44207  0.00000 0.65581  1.00000
Co4 Co   2 a 0.03923  0.00000 0.53867  1.00000
Co5 Co   4 b 0.63582  0.25554 0.28409  1.00000
Co6 Co   2 a 0.74246  0.00000 0.60681  1.00000
Co7 Co   2 a 0.28483  0.00000 0.38422  1.00000
Co8 Co   2 a 0.74100  0.00000 0.10619  1.00000
Ta1 Ta   2 a 0.20619  0.00000 0.83729  1.00000
Ta2 Ta   2 a 0.59302  0.00000 0.75576  1.00000
Ta3 Ta   2 a 0.87975  0.00000 0.43307  1.00000
Ta4 Ta   2 a -0.00079 0.00000 -0.00052 1.00000
 
