# CIF file
# This file was generated by FINDSYM
# Harold T. Stokes, Branton J. Campbell, Dorian M. Hatch
# Brigham Young University, Provo, Utah, USA
 
data_findsym-output
_audit_creation_method FINDSYM
 
_symmetry_space_group_name_H-M "P 1 m 1"
_symmetry_Int_Tables_number 6
 
_cell_length_a    4.56994
_cell_length_b    4.15747
_cell_length_c    9.44468
_cell_angle_alpha 90.00000
_cell_angle_beta  102.40982
_cell_angle_gamma 90.00000
 
loop_
_space_group_symop_id
_space_group_symop_operation_xyz
1 x,y,z
2 x,-y,z
 
loop_
_atom_site_label
_atom_site_type_symbol
_atom_site_symmetry_multiplicity
_atom_site_Wyckoff_label
_atom_site_fract_x
_atom_site_fract_y
_atom_site_fract_z
_atom_site_occupancy
Co1  Co   1 b 0.01462  0.50000 0.58230  1.00000
Co2  Co   1 a 0.33191  0.00000 0.59427  1.00000
Co3  Co   1 a -0.07165 0.00000 0.72049  1.00000
Co4  Co   1 a 0.58312  0.00000 0.14305  1.00000
Co5  Co   1 b 0.24038  0.50000 0.15331  1.00000
Co6  Co   1 b 0.66223  0.50000 0.01045  1.00000
Co7  Co   1 b 0.13824  0.50000 0.86488  1.00000
Co8  Co   1 a 0.79442  0.00000 0.45539  1.00000
Co9  Co   1 a 0.45077  0.00000 0.87392  1.00000
Co10 Co   1 b 0.44817  0.50000 0.45931  1.00000
Ta1  Ta   1 b 0.58735  0.50000 0.73561  1.00000
Ta2  Ta   1 b 0.78909  0.50000 0.28539  1.00000
Ta3  Ta   1 a 0.25428  0.00000 0.32186  1.00000
Ta4  Ta   1 a 0.00100  0.00000 -0.00074 1.00000
 
