# CIF file
# This file was generated by FINDSYM
# Harold T. Stokes, Branton J. Campbell, Dorian M. Hatch
# Brigham Young University, Provo, Utah, USA
 
data_findsym-output
_audit_creation_method FINDSYM
 
_symmetry_space_group_name_H-M "P 1 21/m 1"
_symmetry_Int_Tables_number 11
 
_cell_length_a    4.60364
_cell_length_b    4.15750
_cell_length_c    9.38282
_cell_angle_alpha 90.00000
_cell_angle_beta  103.93204
_cell_angle_gamma 90.00000
 
loop_
_space_group_symop_id
_space_group_symop_operation_xyz
1 x,y,z
2 -x,y+1/2,-z
3 -x,-y,-z
4 x,-y+1/2,z
 
loop_
_atom_site_label
_atom_site_type_symbol
_atom_site_symmetry_multiplicity
_atom_site_Wyckoff_label
_atom_site_fract_x
_atom_site_fract_y
_atom_site_fract_z
_atom_site_occupancy
Co1 Co   2 e 0.29458 0.25000 0.78076  1.00000
Co2 Co   2 e 0.00192 0.25000 0.21176  1.00000
Co3 Co   2 e 0.62705 0.25000 0.36573  1.00000
Co4 Co   2 e 0.15745 0.25000 0.50011  1.00000
Co5 Co   2 e 0.89823 0.25000 -0.07078 1.00000
Ta1 Ta   2 e 0.72435 0.25000 0.64668  1.00000
Ta2 Ta   2 e 0.43037 0.25000 0.09368  1.00000
 
