# CIF file
# This file was generated by FINDSYM
# Harold T. Stokes, Branton J. Campbell, Dorian M. Hatch
# Brigham Young University, Provo, Utah, USA
 
data_findsym-output
_audit_creation_method FINDSYM
 
_symmetry_space_group_name_H-M "P -1"
_symmetry_Int_Tables_number 2
 
_cell_length_a    4.46133
_cell_length_b    5.14653
_cell_length_c    8.26826
_cell_angle_alpha 107.54808
_cell_angle_beta  91.98155
_cell_angle_gamma 104.02372
 
loop_
_space_group_symop_id
_space_group_symop_operation_xyz
1 x,y,z
2 -x,-y,-z
 
loop_
_atom_site_label
_atom_site_type_symbol
_atom_site_symmetry_multiplicity
_atom_site_Wyckoff_label
_atom_site_fract_x
_atom_site_fract_y
_atom_site_fract_z
_atom_site_occupancy
Co1 Co   2 i 0.44592 0.77423  0.35914  1.00000
Co2 Co   1 g 0.00000 0.50000  0.50000  1.00000
Co3 Co   1 b 0.00000 0.00000  0.50000  1.00000
Co4 Co   2 i 0.15717 -0.06787 0.79491  1.00000
Co5 Co   2 i 0.70568 0.65767  -0.06585 1.00000
Co6 Co   2 i 0.29152 0.85509  0.06307  1.00000
Ta1 Ta   2 i 0.10432 0.41296  0.78997  1.00000
Ta2 Ta   2 i 0.39372 0.24804  0.34704  1.00000
 
