# CIF file
# This file was generated by FINDSYM
# Harold T. Stokes, Branton J. Campbell, Dorian M. Hatch
# Brigham Young University, Provo, Utah, USA
 
data_findsym-output
_audit_creation_method FINDSYM
 
_symmetry_space_group_name_H-M "C 1 2/m 1"
_symmetry_Int_Tables_number 12
 
_cell_length_a    17.19963
_cell_length_b    4.11986
_cell_length_c    5.10701
_cell_angle_alpha 90.00000
_cell_angle_beta  106.65209
_cell_angle_gamma 90.00000
 
loop_
_space_group_symop_id
_space_group_symop_operation_xyz
1 x,y,z
2 -x,y,-z
3 -x,-y,-z
4 x,-y,z
5 x+1/2,y+1/2,z
6 -x+1/2,y+1/2,-z
7 -x+1/2,-y+1/2,-z
8 x+1/2,-y+1/2,z
 
loop_
_atom_site_label
_atom_site_type_symbol
_atom_site_symmetry_multiplicity
_atom_site_Wyckoff_label
_atom_site_fract_x
_atom_site_fract_y
_atom_site_fract_z
_atom_site_occupancy
Co1 Co   4 i 0.70839 0.00000 0.71917  1.00000
Co2 Co   4 i 0.70847 0.00000 0.20075  1.00000
Co3 Co   4 i 0.16296 0.00000 -0.08463 1.00000
Co4 Co   2 c 0.00000 0.00000 0.50000  1.00000
Co5 Co   4 i 0.42919 0.00000 0.67262  1.00000
Co6 Co   2 a 0.00000 0.00000 0.00000  1.00000
Ta1 Ta   4 i 0.15351 0.00000 0.40657  1.00000
Ta2 Ta   4 i 0.57359 0.00000 0.83184  1.00000
 
