# CIF file
# This file was generated by FINDSYM
# Harold T. Stokes, Branton J. Campbell, Dorian M. Hatch
# Brigham Young University, Provo, Utah, USA
 
data_findsym-output
_audit_creation_method FINDSYM
 
_symmetry_space_group_name_H-M "P 1"
_symmetry_Int_Tables_number 1
 
_cell_length_a    4.66909
_cell_length_b    4.68453
_cell_length_c    8.50398
_cell_angle_alpha 100.41024
_cell_angle_beta  105.63153
_cell_angle_gamma 90.35237
 
loop_
_space_group_symop_id
_space_group_symop_operation_xyz
1 x,y,z
 
loop_
_atom_site_label
_atom_site_type_symbol
_atom_site_symmetry_multiplicity
_atom_site_Wyckoff_label
_atom_site_fract_x
_atom_site_fract_y
_atom_site_fract_z
_atom_site_occupancy
Co1  Co   1 a 0.72244  0.61157  0.43006  1.00000
Co2  Co   1 a 0.41059  0.07536  0.29271  1.00000
Co3  Co   1 a 0.50874  0.78902  0.01936  1.00000
Co4  Co   1 a -0.03958 0.46118  -0.07873 1.00000
Co5  Co   1 a 0.10877  0.71580  0.72795  1.00000
Co6  Co   1 a 0.89406  0.06241  0.29278  1.00000
Co7  Co   1 a 0.62162  0.71474  0.72835  1.00000
Co8  Co   1 a 0.25985  0.39280  0.51535  1.00000
Co9  Co   1 a 0.57257  0.34446  0.11595  1.00000
Co10 Co   1 a 0.26367  0.89367  0.51750  1.00000
Ta1  Ta   1 a 0.79599  0.16023  0.58772  1.00000
Ta2  Ta   1 a 0.13050  0.56687  0.24098  1.00000
Ta3  Ta   1 a 0.40738  0.24341  0.81440  1.00000
Ta4  Ta   1 a 0.00208  -0.00134 0.00195  1.00000
 
