# CIF file
# This file was generated by FINDSYM
# Harold T. Stokes, Branton J. Campbell, Dorian M. Hatch
# Brigham Young University, Provo, Utah, USA
 
data_findsym-output
_audit_creation_method FINDSYM
 
_symmetry_space_group_name_H-M "C 1 c 1"
_symmetry_Int_Tables_number 9
 
_cell_length_a    6.36076
_cell_length_b    11.61425
_cell_length_c    4.75795
_cell_angle_alpha 90.00000
_cell_angle_beta  94.64544
_cell_angle_gamma 90.00000
 
loop_
_space_group_symop_id
_space_group_symop_operation_xyz
1 x,y,z
2 x,-y,z+1/2
3 x+1/2,y+1/2,z
4 x+1/2,-y+1/2,z+1/2
 
loop_
_atom_site_label
_atom_site_type_symbol
_atom_site_symmetry_multiplicity
_atom_site_Wyckoff_label
_atom_site_fract_x
_atom_site_fract_y
_atom_site_fract_z
_atom_site_occupancy
Co1 Co   4 a 0.38192  0.36815 0.49626 1.00000
Co2 Co   4 a 0.06644  0.45628 0.71803 1.00000
Co3 Co   4 a 0.25814  0.17922 0.23721 1.00000
Co4 Co   4 a 0.13375  0.24672 0.74336 1.00000
Co5 Co   4 a 0.22348  0.02571 0.89573 1.00000
Ta1 Ta   4 a 0.48929  0.16608 0.72324 1.00000
Ta2 Ta   4 a -0.09156 0.09223 0.50023 1.00000
 
