# CIF file
# This file was generated by FINDSYM
# Harold T. Stokes, Branton J. Campbell, Dorian M. Hatch
# Brigham Young University, Provo, Utah, USA
 
data_findsym-output
_audit_creation_method FINDSYM
 
_symmetry_space_group_name_H-M "I m m 2"
_symmetry_Int_Tables_number 44
 
_cell_length_a    3.61398
_cell_length_b    3.55133
_cell_length_c    27.52805
_cell_angle_alpha 90.00000
_cell_angle_beta  90.00000
_cell_angle_gamma 90.00000
 
loop_
_space_group_symop_id
_space_group_symop_operation_xyz
1 x,y,z
2 -x,-y,z
3 -x,y,z
4 x,-y,z
5 x+1/2,y+1/2,z+1/2
6 -x+1/2,-y+1/2,z+1/2
7 -x+1/2,y+1/2,z+1/2
8 x+1/2,-y+1/2,z+1/2
 
loop_
_atom_site_label
_atom_site_type_symbol
_atom_site_symmetry_multiplicity
_atom_site_Wyckoff_label
_atom_site_fract_x
_atom_site_fract_y
_atom_site_fract_z
_atom_site_occupancy
Co1  Co   2 a 0.00000 0.00000 0.26851  1.00000
Co2  Co   2 a 0.00000 0.00000 0.51212  1.00000
Co3  Co   2 a 0.00000 0.00000 0.63187  1.00000
Co4  Co   2 b 0.00000 0.50000 0.33637  1.00000
Co5  Co   2 a 0.00000 0.00000 0.13179  1.00000
Co6  Co   2 a 0.00000 0.00000 -0.09581 1.00000
Co7  Co   2 b 0.00000 0.50000 0.57233  1.00000
Co8  Co   2 b 0.00000 0.50000 0.07185  1.00000
Co9  Co   2 a 0.00000 0.00000 0.76848  1.00000
Co10 Co   2 b 0.00000 0.50000 0.20116  1.00000
Ta1  Ta   2 b 0.00000 0.50000 0.70249  1.00000
Ta2  Ta   2 a 0.00000 0.00000 0.42377  1.00000
Ta3  Ta   2 a 0.00000 0.00000 -0.00528 1.00000
Ta4  Ta   2 b 0.00000 0.50000 0.83413  1.00000
 
