# CIF file
# This file was generated by FINDSYM
# Harold T. Stokes, Branton J. Campbell, Dorian M. Hatch
# Brigham Young University, Provo, Utah, USA
 
data_findsym-output
_audit_creation_method FINDSYM
 
_symmetry_space_group_name_H-M "P 1"
_symmetry_Int_Tables_number 1
 
_cell_length_a    4.79302
_cell_length_b    4.79900
_cell_length_c    10.10418
_cell_angle_alpha 92.85056
_cell_angle_beta  91.13659
_cell_angle_gamma 119.69073
 
loop_
_space_group_symop_id
_space_group_symop_operation_xyz
1 x,y,z
 
loop_
_atom_site_label
_atom_site_type_symbol
_atom_site_symmetry_multiplicity
_atom_site_Wyckoff_label
_atom_site_fract_x
_atom_site_fract_y
_atom_site_fract_z
_atom_site_occupancy
Fe1  Fe   1 a 0.51809  0.03253  0.14170  1.00000
Fe2  Fe   1 a 0.50830  0.51356  0.13743  1.00000
Fe3  Fe   1 a 0.02050  0.51575  0.13953  1.00000
Fe4  Fe   1 a 0.42516  0.89080  0.36291  1.00000
Fe5  Fe   1 a 0.43530  0.40407  0.36820  1.00000
Fe6  Fe   1 a -0.08402 0.40164  0.36575  1.00000
Fe7  Fe   1 a 0.13570  0.29193  0.75246  1.00000
Fe8  Fe   1 a 0.13502  0.79711  0.75250  1.00000
Fe9  Fe   1 a 0.64092  0.79683  0.75250  1.00000
Fe10 Fe   1 a 0.32785  0.66388  -0.05609 1.00000
Fe11 Fe   1 a 0.27970  0.59924  0.56098  1.00000
Fe12 Fe   1 a -0.02909 -0.03935 0.25271  1.00000
Ta1  Ta   1 a 0.62058  0.27201  0.60787  1.00000
Ta2  Ta   1 a 0.65393  0.31697  0.89721  1.00000
Ta3  Ta   1 a -0.05753 -0.07738 0.50530  1.00000
Ta4  Ta   1 a -0.00076 -0.00091 0.00002  1.00000
 
