# CIF file
# This file was generated by FINDSYM
# Harold T. Stokes, Branton J. Campbell, Dorian M. Hatch
# Brigham Young University, Provo, Utah, USA
 
data_findsym-output
_audit_creation_method FINDSYM
 
_symmetry_space_group_name_H-M "C 1 m 1"
_symmetry_Int_Tables_number 8
 
_cell_length_a    8.29226
_cell_length_b    4.78617
_cell_length_c    10.54105
_cell_angle_alpha 90.00000
_cell_angle_beta  103.04593
_cell_angle_gamma 90.00000
 
loop_
_space_group_symop_id
_space_group_symop_operation_xyz
1 x,y,z
2 x,-y,z
3 x+1/2,y+1/2,z
4 x+1/2,-y+1/2,z
 
loop_
_atom_site_label
_atom_site_type_symbol
_atom_site_symmetry_multiplicity
_atom_site_Wyckoff_label
_atom_site_fract_x
_atom_site_fract_y
_atom_site_fract_z
_atom_site_occupancy
Fe1 Fe   2 a 0.23379  0.00000 0.65972  1.00000
Fe2 Fe   2 a 0.89577  0.00000 0.23013  1.00000
Fe3 Fe   2 a 0.01550  0.00000 0.46766  1.00000
Fe4 Fe   4 b 0.20647  0.24912 0.85128  1.00000
Fe5 Fe   4 b 0.76033  0.24201 0.46995  1.00000
Fe6 Fe   2 a 0.45557  0.00000 0.85116  1.00000
Fe7 Fe   2 a 0.67801  0.00000 0.04010  1.00000
Fe8 Fe   4 b 0.65153  0.25810 0.22793  1.00000
Fe9 Fe   2 a 0.35493  0.00000 0.07794  1.00000
Ta1 Ta   2 a 0.44998  0.00000 0.33888  1.00000
Ta2 Ta   2 a 0.55551  0.00000 0.61727  1.00000
Ta3 Ta   2 a -0.08422 0.00000 0.71063  1.00000
Ta4 Ta   2 a -0.00099 0.00000 -0.00004 1.00000
 
