# CIF file
# This file was generated by FINDSYM
# Harold T. Stokes, Branton J. Campbell, Dorian M. Hatch
# Brigham Young University, Provo, Utah, USA
 
data_findsym-output
_audit_creation_method FINDSYM
 
_symmetry_space_group_name_H-M "P -6 m 2"
_symmetry_Int_Tables_number 187
 
_cell_length_a    4.79436
_cell_length_b    4.79436
_cell_length_c    10.17757
_cell_angle_alpha 90.00000
_cell_angle_beta  90.00000
_cell_angle_gamma 120.00000
 
loop_
_space_group_symop_id
_space_group_symop_operation_xyz
1 x,y,z
2 -y,x-y,z
3 -x+y,-x,z
4 x,x-y,-z
5 -x+y,y,-z
6 -y,-x,-z
7 -x+y,-x,-z
8 x,y,-z
9 -y,x-y,-z
10 -x+y,y,z
11 -y,-x,z
12 x,x-y,z
 
loop_
_atom_site_label
_atom_site_type_symbol
_atom_site_symmetry_multiplicity
_atom_site_Wyckoff_label
_atom_site_fract_x
_atom_site_fract_y
_atom_site_fract_z
_atom_site_occupancy
Fe1 Fe   6 n 0.50092 0.49908 0.61662 1.00000
Fe2 Fe   3 j 0.16449 0.83551 0.00000 1.00000
Fe3 Fe   2 h 0.33333 0.66667 0.81080 1.00000
Fe4 Fe   1 b 0.00000 0.00000 0.50000 1.00000
Ta1 Ta   2 i 0.66667 0.33333 0.14324 1.00000
Ta2 Ta   2 g 0.00000 0.00000 0.24770 1.00000
 
