# CIF file
# This file was generated by FINDSYM
# Harold T. Stokes, Branton J. Campbell, Dorian M. Hatch
# Brigham Young University, Provo, Utah, USA
 
data_findsym-output
_audit_creation_method FINDSYM
 
_symmetry_space_group_name_H-M "P 1"
_symmetry_Int_Tables_number 1
 
_cell_length_a    4.78616
_cell_length_b    4.78697
_cell_length_c    10.54859
_cell_angle_alpha 100.76376
_cell_angle_beta  91.64441
_cell_angle_gamma 119.92386
 
loop_
_space_group_symop_id
_space_group_symop_operation_xyz
1 x,y,z
 
loop_
_atom_site_label
_atom_site_type_symbol
_atom_site_symmetry_multiplicity
_atom_site_Wyckoff_label
_atom_site_fract_x
_atom_site_fract_y
_atom_site_fract_z
_atom_site_occupancy
Fe1  Fe   1 a 0.23410  0.43480  0.67928 1.00000
Fe2  Fe   1 a 0.45585  0.87685  0.87031 1.00000
Fe3  Fe   1 a -0.00209 0.48774  0.48780 1.00000
Fe4  Fe   1 a 0.47410  0.38107  0.87151 1.00000
Fe5  Fe   1 a 0.49610  0.48778  0.48748 1.00000
Fe6  Fe   1 a -0.00228 -0.01056 0.48765 1.00000
Fe7  Fe   1 a 0.76213  0.54276  0.29882 1.00000
Fe8  Fe   1 a -0.03503 0.39000  0.86811 1.00000
Fe9  Fe   1 a 0.08380  0.18758  0.26103 1.00000
Fe10 Fe   1 a 0.52144  0.59754  0.10925 1.00000
Fe11 Fe   1 a 0.53966  0.10199  0.10959 1.00000
Fe12 Fe   1 a 0.02919  0.58670  0.11100 1.00000
Ta1  Ta   1 a -0.08724 0.79355  0.72175 1.00000
Ta2  Ta   1 a 0.54567  0.07189  0.62823 1.00000
Ta3  Ta   1 a 0.44559  0.89984  0.33883 1.00000
Ta4  Ta   1 a -0.00034 0.00016  0.00015 1.00000
 
