# CIF file
# This file was generated by FINDSYM
# Harold T. Stokes, Branton J. Campbell, Dorian M. Hatch
# Brigham Young University, Provo, Utah, USA
 
data_findsym-output
_audit_creation_method FINDSYM
 
_symmetry_space_group_name_H-M "P -1"
_symmetry_Int_Tables_number 2
 
_cell_length_a    4.79451
_cell_length_b    4.79882
_cell_length_c    10.28654
_cell_angle_alpha 78.77827
_cell_angle_beta  88.09681
_cell_angle_gamma 60.47434
 
loop_
_space_group_symop_id
_space_group_symop_operation_xyz
1 x,y,z
2 -x,-y,-z
 
loop_
_atom_site_label
_atom_site_type_symbol
_atom_site_symmetry_multiplicity
_atom_site_Wyckoff_label
_atom_site_fract_x
_atom_site_fract_y
_atom_site_fract_z
_atom_site_occupancy
Fe1 Fe   2 i 0.70010  0.06775 0.19259 1.00000
Fe2 Fe   2 i -0.09008 0.64280 0.38936 1.00000
Fe3 Fe   1 a 0.00000  0.00000 0.00000 1.00000
Fe4 Fe   2 i 0.39538  0.13472 0.38859 1.00000
Fe5 Fe   1 d 0.50000  0.00000 0.00000 1.00000
Fe6 Fe   1 e 0.50000  0.50000 0.00000 1.00000
Fe7 Fe   2 i -0.08630 0.13355 0.38470 1.00000
Fe8 Fe   1 h 0.50000  0.50000 0.50000 1.00000
Ta1 Ta   2 i 0.38215  0.70738 0.24587 1.00000
Ta2 Ta   2 i 0.02886  0.42600 0.14444 1.00000
 
