# CIF file
# This file was generated by FINDSYM
# Harold T. Stokes, Branton J. Campbell, Dorian M. Hatch
# Brigham Young University, Provo, Utah, USA
 
data_findsym-output
_audit_creation_method FINDSYM
 
_symmetry_space_group_name_H-M "C 1 2/m 1"
_symmetry_Int_Tables_number 12
 
_cell_length_a    8.35477
_cell_length_b    4.79351
_cell_length_c    10.26231
_cell_angle_alpha 90.00000
_cell_angle_beta  101.44631
_cell_angle_gamma 90.00000
 
loop_
_space_group_symop_id
_space_group_symop_operation_xyz
1 x,y,z
2 -x,y,-z
3 -x,-y,-z
4 x,-y,z
5 x+1/2,y+1/2,z
6 -x+1/2,y+1/2,-z
7 -x+1/2,-y+1/2,-z
8 x+1/2,-y+1/2,z
 
loop_
_atom_site_label
_atom_site_type_symbol
_atom_site_symmetry_multiplicity
_atom_site_Wyckoff_label
_atom_site_fract_x
_atom_site_fract_y
_atom_site_fract_z
_atom_site_occupancy
Fe1 Fe   4 i 0.21477 0.00000 0.69297 1.00000
Fe2 Fe   8 j 0.17840 0.26007 0.88582 1.00000
Fe3 Fe   2 c 0.00000 0.00000 0.50000 1.00000
Fe4 Fe   4 i 0.42385 0.00000 0.89077 1.00000
Fe5 Fe   4 f 0.25000 0.25000 0.50000 1.00000
Fe6 Fe   2 a 0.00000 0.00000 0.00000 1.00000
Ta1 Ta   4 i 0.89329 0.00000 0.74559 1.00000
Ta2 Ta   4 i 0.53491 0.00000 0.64436 1.00000
 
