# CIF file
# This file was generated by FINDSYM
# Harold T. Stokes, Branton J. Campbell, Dorian M. Hatch
# Brigham Young University, Provo, Utah, USA
 
data_findsym-output
_audit_creation_method FINDSYM
 
_symmetry_space_group_name_H-M "P -1"
_symmetry_Int_Tables_number 2
 
_cell_length_a    4.77657
_cell_length_b    4.78263
_cell_length_c    8.94186
_cell_angle_alpha 89.53208
_cell_angle_beta  81.85785
_cell_angle_gamma 89.76553
 
loop_
_space_group_symop_id
_space_group_symop_operation_xyz
1 x,y,z
2 -x,-y,-z
 
loop_
_atom_site_label
_atom_site_type_symbol
_atom_site_symmetry_multiplicity
_atom_site_Wyckoff_label
_atom_site_fract_x
_atom_site_fract_y
_atom_site_fract_z
_atom_site_occupancy
Fe1 Fe   2 i 0.08140 0.75191  0.06942 1.00000
Fe2 Fe   2 i 0.40047 0.48876  0.88707 1.00000
Fe3 Fe   2 i 0.40325 -0.00536 0.88555 1.00000
Fe4 Fe   1 g 0.00000 0.50000  0.50000 1.00000
Fe5 Fe   2 i 0.70203 0.24749  0.69102 1.00000
Fe6 Fe   2 i 0.78782 0.75259  0.31698 1.00000
Fe7 Fe   1 b 0.00000 0.00000  0.50000 1.00000
Ta1 Ta   2 i 0.46639 0.74823  0.59884 1.00000
Ta2 Ta   2 i 0.09299 0.25277  0.19726 1.00000
 
