# CIF file
# This file was generated by FINDSYM
# Harold T. Stokes, Branton J. Campbell, Dorian M. Hatch
# Brigham Young University, Provo, Utah, USA
 
data_findsym-output
_audit_creation_method FINDSYM
 
_symmetry_space_group_name_H-M "P 1 21/m 1"
_symmetry_Int_Tables_number 11
 
_cell_length_a    5.10854
_cell_length_b    4.13759
_cell_length_c    9.85599
_cell_angle_alpha 90.00000
_cell_angle_beta  100.77521
_cell_angle_gamma 90.00000
 
loop_
_space_group_symop_id
_space_group_symop_operation_xyz
1 x,y,z
2 -x,y+1/2,-z
3 -x,-y,-z
4 x,-y+1/2,z
 
loop_
_atom_site_label
_atom_site_type_symbol
_atom_site_symmetry_multiplicity
_atom_site_Wyckoff_label
_atom_site_fract_x
_atom_site_fract_y
_atom_site_fract_z
_atom_site_occupancy
Fe1 Fe   2 e 0.56420 0.25000 0.18124  1.00000
Fe2 Fe   2 e 0.30517 0.25000 0.43433  1.00000
Fe3 Fe   2 e 0.56065 0.25000 0.69295  1.00000
Fe4 Fe   2 e 0.06483 0.25000 0.69066  1.00000
Fe5 Fe   2 e 0.79302 0.25000 -0.06220 1.00000
Fe6 Fe   2 e 0.31178 0.25000 -0.06241 1.00000
Ta1 Ta   2 e 0.79435 0.25000 0.43593  1.00000
Ta2 Ta   2 e 0.06563 0.25000 0.18127  1.00000
 
