# CIF file
# This file was generated by FINDSYM
# Harold T. Stokes, Branton J. Campbell, Dorian M. Hatch
# Brigham Young University, Provo, Utah, USA
 
data_findsym-output
_audit_creation_method FINDSYM
 
_symmetry_space_group_name_H-M "P 1"
_symmetry_Int_Tables_number 1
 
_cell_length_a    4.65330
_cell_length_b    4.78107
_cell_length_c    9.13292
_cell_angle_alpha 86.46158
_cell_angle_beta  87.60499
_cell_angle_gamma 88.78715
 
loop_
_space_group_symop_id
_space_group_symop_operation_xyz
1 x,y,z
 
loop_
_atom_site_label
_atom_site_type_symbol
_atom_site_symmetry_multiplicity
_atom_site_Wyckoff_label
_atom_site_fract_x
_atom_site_fract_y
_atom_site_fract_z
_atom_site_occupancy
Fe1  Fe   1 a -0.01886 0.72481  0.46027  1.00000
Fe2  Fe   1 a 0.71487  0.45777  0.64872  1.00000
Fe3  Fe   1 a 0.73788  -0.00095 0.27568  1.00000
Fe4  Fe   1 a 0.21541  0.44856  0.64874  1.00000
Fe5  Fe   1 a -0.02071 0.22531  0.46144  1.00000
Fe6  Fe   1 a 0.24520  -0.00638 0.27126  1.00000
Fe7  Fe   1 a 0.42174  0.66508  0.84689  1.00000
Fe8  Fe   1 a -0.07251 0.48222  0.89102  1.00000
Fe9  Fe   1 a 0.47411  0.15287  0.84067  1.00000
Fe10 Fe   1 a 0.52140  0.77096  0.08245  1.00000
Fe11 Fe   1 a 0.50151  0.29242  0.08017  1.00000
Fe12 Fe   1 a -0.03689 -0.04587 0.71949  1.00000
Ta1  Ta   1 a 0.47061  -0.04113 0.56712  1.00000
Ta2  Ta   1 a 0.48852  0.48521  0.37103  1.00000
Ta3  Ta   1 a 0.00381  0.49305  0.18454  1.00000
Ta4  Ta   1 a 0.00232  0.00168  -0.00067 1.00000
 
