# CIF file
# This file was generated by FINDSYM
# Harold T. Stokes, Branton J. Campbell, Dorian M. Hatch
# Brigham Young University, Provo, Utah, USA
 
data_findsym-output
_audit_creation_method FINDSYM
 
_symmetry_space_group_name_H-M "P -1"
_symmetry_Int_Tables_number 2
 
_cell_length_a    4.85386
_cell_length_b    5.09794
_cell_length_c    8.77324
_cell_angle_alpha 94.30060
_cell_angle_beta  104.37695
_cell_angle_gamma 98.16681
 
loop_
_space_group_symop_id
_space_group_symop_operation_xyz
1 x,y,z
2 -x,-y,-z
 
loop_
_atom_site_label
_atom_site_type_symbol
_atom_site_symmetry_multiplicity
_atom_site_Wyckoff_label
_atom_site_fract_x
_atom_site_fract_y
_atom_site_fract_z
_atom_site_occupancy
Fe1 Fe   2 i 0.68840  0.22493  0.12702 1.00000
Fe2 Fe   2 i 0.44258  0.08141  0.62697 1.00000
Fe3 Fe   2 i 0.19601  -0.02499 0.12057 1.00000
Fe4 Fe   2 i -0.07956 0.32759  0.62322 1.00000
Fe5 Fe   2 i 0.57431  0.42361  0.37473 1.00000
Fe6 Fe   2 i 0.81768  0.52696  0.87341 1.00000
Ta1 Ta   2 i 0.30906  0.27668  0.87420 1.00000
Ta2 Ta   2 i 0.07336  0.17465  0.37525 1.00000
 
