# CIF file
# This file was generated by FINDSYM
# Harold T. Stokes, Branton J. Campbell, Dorian M. Hatch
# Brigham Young University, Provo, Utah, USA
 
data_findsym-output
_audit_creation_method FINDSYM
 
_symmetry_space_group_name_H-M "P 1 21/m 1"
_symmetry_Int_Tables_number 11
 
_cell_length_a    4.77611
_cell_length_b    4.78363
_cell_length_c    8.94210
_cell_angle_alpha 90.00000
_cell_angle_beta  98.17126
_cell_angle_gamma 90.00000
 
loop_
_space_group_symop_id
_space_group_symop_operation_xyz
1 x,y,z
2 -x,y+1/2,-z
3 -x,-y,-z
4 x,-y+1/2,z
 
loop_
_atom_site_label
_atom_site_type_symbol
_atom_site_symmetry_multiplicity
_atom_site_Wyckoff_label
_atom_site_fract_x
_atom_site_fract_y
_atom_site_fract_z
_atom_site_occupancy
Fe1 Fe   2 e 0.58160  0.25000 -0.06938 1.00000
Fe2 Fe   4 f 0.09855  0.00299 0.88625  1.00000
Fe3 Fe   2 d 0.50000  0.00000 0.50000  1.00000
Fe4 Fe   2 e 0.79819  0.25000 0.69102  1.00000
Fe5 Fe   2 e 0.28813  0.25000 0.68297  1.00000
Ta1 Ta   2 e -0.03394 0.25000 0.40114  1.00000
Ta2 Ta   2 e 0.40635  0.25000 0.19704  1.00000
 
