# CIF file
# This file was generated by FINDSYM
# Harold T. Stokes, Branton J. Campbell, Dorian M. Hatch
# Brigham Young University, Provo, Utah, USA
 
data_findsym-output
_audit_creation_method FINDSYM
 
_symmetry_space_group_name_H-M "P 1 21/m 1"
_symmetry_Int_Tables_number 11
 
_cell_length_a    4.84844
_cell_length_b    8.44448
_cell_length_c    5.10202
_cell_angle_alpha 90.00000
_cell_angle_beta  98.17166
_cell_angle_gamma 90.00000
 
loop_
_space_group_symop_id
_space_group_symop_operation_xyz
1 x,y,z
2 -x,y+1/2,-z
3 -x,-y,-z
4 x,-y+1/2,z
 
loop_
_atom_site_label
_atom_site_type_symbol
_atom_site_symmetry_multiplicity
_atom_site_Wyckoff_label
_atom_site_fract_x
_atom_site_fract_y
_atom_site_fract_z
_atom_site_occupancy
Fe1 Fe   2 e 0.73235  0.25000 0.85396 1.00000
Fe2 Fe   2 e 0.74955  0.25000 0.35506 1.00000
Fe3 Fe   2 e 0.23022  0.25000 0.60343 1.00000
Fe4 Fe   2 b 0.50000  0.00000 0.00000 1.00000
Fe5 Fe   4 f -0.00714 0.50397 0.24716 1.00000
Ta1 Ta   2 d 0.50000  0.00000 0.50000 1.00000
Ta2 Ta   2 e 0.23618  0.25000 0.10170 1.00000
 
