# CIF file
# This file was generated by FINDSYM
# Harold T. Stokes, Branton J. Campbell, Dorian M. Hatch
# Brigham Young University, Provo, Utah, USA
 
data_findsym-output
_audit_creation_method FINDSYM
 
_symmetry_space_group_name_H-M "C 1 m 1"
_symmetry_Int_Tables_number 8
 
_cell_length_a    8.29958
_cell_length_b    5.96380
_cell_length_c    8.29807
_cell_angle_alpha 90.00000
_cell_angle_beta  91.31372
_cell_angle_gamma 90.00000
 
loop_
_space_group_symop_id
_space_group_symop_operation_xyz
1 x,y,z
2 x,-y,z
3 x+1/2,y+1/2,z
4 x+1/2,-y+1/2,z
 
loop_
_atom_site_label
_atom_site_type_symbol
_atom_site_symmetry_multiplicity
_atom_site_Wyckoff_label
_atom_site_fract_x
_atom_site_fract_y
_atom_site_fract_z
_atom_site_occupancy
Fe1 Fe   4 b 0.00409  0.25728 0.24143  1.00000
Fe2 Fe   2 a 0.50511  0.00000 -0.00076 1.00000
Fe3 Fe   2 a 0.75873  0.00000 0.74858  1.00000
Fe4 Fe   2 a 0.75432  0.00000 0.24423  1.00000
Fe5 Fe   2 a 0.25464  0.00000 0.24407  1.00000
Fe6 Fe   4 b 0.51285  0.24797 0.74755  1.00000
Fe7 Fe   4 b 0.75088  0.24714 0.00278  1.00000
Fe8 Fe   4 b 0.25917  0.24414 0.49291  1.00000
Ta1 Ta   2 a 0.51541  0.00000 0.49120  1.00000
Ta2 Ta   2 a 0.00208  0.00000 0.48950  1.00000
Ta3 Ta   2 a 0.26481  0.00000 0.75324  1.00000
Ta4 Ta   2 a -0.00010 0.00000 -0.00004 1.00000
 
