# CIF file
# This file was generated by FINDSYM
# Harold T. Stokes, Branton J. Campbell, Dorian M. Hatch
# Brigham Young University, Provo, Utah, USA
 
data_findsym-output
_audit_creation_method FINDSYM
 
_symmetry_space_group_name_H-M "P 1 21/m 1"
_symmetry_Int_Tables_number 11
 
_cell_length_a    4.87054
_cell_length_b    4.22297
_cell_length_c    5.09188
_cell_angle_alpha 90.00000
_cell_angle_beta  98.41038
_cell_angle_gamma 90.00000
 
loop_
_space_group_symop_id
_space_group_symop_operation_xyz
1 x,y,z
2 -x,y+1/2,-z
3 -x,-y,-z
4 x,-y+1/2,z
 
loop_
_atom_site_label
_atom_site_type_symbol
_atom_site_symmetry_multiplicity
_atom_site_Wyckoff_label
_atom_site_fract_x
_atom_site_fract_y
_atom_site_fract_z
_atom_site_occupancy
Fe1 Fe   2 e 0.63378 0.25000 0.44736  1.00000
Fe2 Fe   2 e 0.13798 0.25000 0.69761  1.00000
Fe3 Fe   2 e 0.61749 0.25000 -0.05864 1.00000
Ta1 Ta   2 e 0.13038 0.25000 0.20127  1.00000
 
