# CIF file
# This file was generated by FINDSYM
# Harold T. Stokes, Branton J. Campbell, Dorian M. Hatch
# Brigham Young University, Provo, Utah, USA
 
data_findsym-output
_audit_creation_method FINDSYM
 
_symmetry_space_group_name_H-M "P m m 2"
_symmetry_Int_Tables_number 25
 
_cell_length_a    3.80962
_cell_length_b    3.88825
_cell_length_c    11.70473
_cell_angle_alpha 90.00000
_cell_angle_beta  90.00000
_cell_angle_gamma 90.00000
 
loop_
_space_group_symop_id
_space_group_symop_operation_xyz
1 x,y,z
2 -x,-y,z
3 -x,y,z
4 x,-y,z
 
loop_
_atom_site_label
_atom_site_type_symbol
_atom_site_symmetry_multiplicity
_atom_site_Wyckoff_label
_atom_site_fract_x
_atom_site_fract_y
_atom_site_fract_z
_atom_site_occupancy
Fe1  Fe   1 b 0.00000 0.50000 0.00002  1.00000
Fe2  Fe   1 d 0.50000 0.50000 0.50001  1.00000
Fe3  Fe   1 d 0.50000 0.50000 0.83043  1.00000
Fe4  Fe   1 d 0.50000 0.50000 0.16958  1.00000
Fe5  Fe   1 b 0.00000 0.50000 0.33043  1.00000
Fe6  Fe   1 b 0.00000 0.50000 0.66957  1.00000
Fe7  Fe   1 c 0.50000 0.00000 0.33275  1.00000
Fe8  Fe   1 c 0.50000 0.00000 0.66709  1.00000
Fe9  Fe   1 a 0.00000 0.00000 0.83275  1.00000
Fe10 Fe   1 a 0.00000 0.00000 0.16712  1.00000
Fe11 Fe   1 c 0.50000 0.00000 -0.00032 1.00000
Fe12 Fe   1 a 0.00000 0.00000 0.49997  1.00000
N1   N    1 d 0.50000 0.50000 -0.00003 1.00000
N2   N    1 b 0.00000 0.50000 0.49999  1.00000
N3   N    1 c 0.50000 0.00000 0.83362  1.00000
N4   N    1 c 0.50000 0.00000 0.16618  1.00000
N5   N    1 a 0.00000 0.00000 0.33370  1.00000
N6   N    1 a 0.00000 0.00000 0.66626  1.00000
 
