# CIF file
# This file was generated by FINDSYM
# Harold T. Stokes, Branton J. Campbell, Dorian M. Hatch
# Brigham Young University, Provo, Utah, USA
 
data_findsym-output
_audit_creation_method FINDSYM
 
_symmetry_space_group_name_H-M "F m m 2"
_symmetry_Int_Tables_number 42
 
_cell_length_a    9.03339
_cell_length_b    2.68858
_cell_length_c    4.54304
_cell_angle_alpha 90.00000
_cell_angle_beta  90.00000
_cell_angle_gamma 90.00000
 
loop_
_space_group_symop_id
_space_group_symop_operation_xyz
1 x,y,z
2 -x,-y,z
3 -x,y,z
4 x,-y,z
5 x,y+1/2,z+1/2
6 -x,-y+1/2,z+1/2
7 -x,y+1/2,z+1/2
8 x,-y+1/2,z+1/2
9 x+1/2,y,z+1/2
10 -x+1/2,-y,z+1/2
11 -x+1/2,y,z+1/2
12 x+1/2,-y,z+1/2
13 x+1/2,y+1/2,z
14 -x+1/2,-y+1/2,z
15 -x+1/2,y+1/2,z
16 x+1/2,-y+1/2,z
 
loop_
_atom_site_label
_atom_site_type_symbol
_atom_site_symmetry_multiplicity
_atom_site_Wyckoff_label
_atom_site_fract_x
_atom_site_fract_y
_atom_site_fract_z
_atom_site_occupancy
Fe1 Fe   8 d 0.86536 0.00000 0.33204  1.00000
N1  N    4 a 0.00000 0.00000 -0.00021 1.00000
 
