# CIF file
# This file was generated by FINDSYM
# Harold T. Stokes, Branton J. Campbell, Dorian M. Hatch
# Brigham Young University, Provo, Utah, USA
 
data_findsym-output
_audit_creation_method FINDSYM
 
_symmetry_space_group_name_H-M "P 1 m 1"
_symmetry_Int_Tables_number 6
 
_cell_length_a    2.94929
_cell_length_b    3.75843
_cell_length_c    8.48244
_cell_angle_alpha 90.00000
_cell_angle_beta  92.27879
_cell_angle_gamma 90.00000
 
loop_
_space_group_symop_id
_space_group_symop_operation_xyz
1 x,y,z
2 x,-y,z
 
loop_
_atom_site_label
_atom_site_type_symbol
_atom_site_symmetry_multiplicity
_atom_site_Wyckoff_label
_atom_site_fract_x
_atom_site_fract_y
_atom_site_fract_z
_atom_site_occupancy
Fe1 Fe   1 a 0.08257  0.00000 0.53404  1.00000
Fe2 Fe   1 b 0.27897  0.50000 0.33202  1.00000
Fe3 Fe   1 a 0.76349  0.00000 0.20131  1.00000
Fe4 Fe   1 b 0.60028  0.50000 0.66281  1.00000
Fe5 Fe   1 a 0.47455  0.00000 0.87349  1.00000
Fe6 Fe   1 b -0.00935 0.50000 0.00080  1.00000
N1  N    1 a 0.26713  0.00000 0.32866  1.00000
N2  N    1 a 0.58691  0.00000 0.66043  1.00000
N3  N    1 a -0.02013 0.00000 -0.00098 1.00000
 
