# CIF file
# This file was generated by FINDSYM
# Harold T. Stokes, Branton J. Campbell, Dorian M. Hatch
# Brigham Young University, Provo, Utah, USA
 
data_findsym-output
_audit_creation_method FINDSYM
 
_symmetry_space_group_name_H-M "C 1 m 1"
_symmetry_Int_Tables_number 8
 
_cell_length_a    5.01016
_cell_length_b    4.99673
_cell_length_c    6.72972
_cell_angle_alpha 90.00000
_cell_angle_beta  101.17012
_cell_angle_gamma 90.00000
 
loop_
_space_group_symop_id
_space_group_symop_operation_xyz
1 x,y,z
2 x,-y,z
3 x+1/2,y+1/2,z
4 x+1/2,-y+1/2,z
 
loop_
_atom_site_label
_atom_site_type_symbol
_atom_site_symmetry_multiplicity
_atom_site_Wyckoff_label
_atom_site_fract_x
_atom_site_fract_y
_atom_site_fract_z
_atom_site_occupancy
Fe1 Fe   4 b 0.29376  0.24628 0.11021  1.00000
Fe2 Fe   4 b 0.62958  0.25330 0.44346  1.00000
Fe3 Fe   4 b 0.45657  0.25251 0.77673  1.00000
N1  N    2 a 0.18433  0.00000 0.66671  1.00000
N2  N    2 a 0.36507  0.00000 0.33245  1.00000
N3  N    2 a -0.00039 0.00000 -0.00048 1.00000
 
