# CIF file
# This file was generated by FINDSYM
# Harold T. Stokes, Branton J. Campbell, Dorian M. Hatch
# Brigham Young University, Provo, Utah, USA
 
data_findsym-output
_audit_creation_method FINDSYM
 
_symmetry_space_group_name_H-M "C 1 m 1"
_symmetry_Int_Tables_number 8
 
_cell_length_a    9.37366
_cell_length_b    2.68642
_cell_length_c    8.05135
_cell_angle_alpha 90.00000
_cell_angle_beta  121.78372
_cell_angle_gamma 90.00000
 
loop_
_space_group_symop_id
_space_group_symop_operation_xyz
1 x,y,z
2 x,-y,z
3 x+1/2,y+1/2,z
4 x+1/2,-y+1/2,z
 
loop_
_atom_site_label
_atom_site_type_symbol
_atom_site_symmetry_multiplicity
_atom_site_Wyckoff_label
_atom_site_fract_x
_atom_site_fract_y
_atom_site_fract_z
_atom_site_occupancy
Fe1 Fe   2 a 0.45222  0.00000 0.16272 1.00000
Fe2 Fe   2 a 0.76354  0.00000 0.83355 1.00000
Fe3 Fe   2 a 0.67247  0.00000 0.07815 1.00000
Fe4 Fe   2 a 0.23599  0.00000 0.51124 1.00000
Fe5 Fe   2 a 0.00580  0.00000 0.76924 1.00000
Fe6 Fe   2 a -0.07672 0.00000 0.41671 1.00000
N1  N    2 a 0.13497  0.00000 0.65408 1.00000
N2  N    2 a 0.69997  0.00000 0.33602 1.00000
N3  N    2 a 0.00023  0.00000 0.00044 1.00000
 
