# CIF file
# This file was generated by FINDSYM
# Harold T. Stokes, Branton J. Campbell, Dorian M. Hatch
# Brigham Young University, Provo, Utah, USA
 
data_findsym-output
_audit_creation_method FINDSYM
 
_symmetry_space_group_name_H-M "C 1 m 1"
_symmetry_Int_Tables_number 8
 
_cell_length_a    8.69976
_cell_length_b    3.64837
_cell_length_c    5.95204
_cell_angle_alpha 90.00000
_cell_angle_beta  98.58561
_cell_angle_gamma 90.00000
 
loop_
_space_group_symop_id
_space_group_symop_operation_xyz
1 x,y,z
2 x,-y,z
3 x+1/2,y+1/2,z
4 x+1/2,-y+1/2,z
 
loop_
_atom_site_label
_atom_site_type_symbol
_atom_site_symmetry_multiplicity
_atom_site_Wyckoff_label
_atom_site_fract_x
_atom_site_fract_y
_atom_site_fract_z
_atom_site_occupancy
Fe1 Fe   2 a -0.07442 0.00000 0.28231  1.00000
Fe2 Fe   2 a 0.20020  0.00000 0.13246  1.00000
Fe3 Fe   2 a 0.81539  0.00000 0.84077  1.00000
Fe4 Fe   2 a 0.32971  0.00000 0.54985  1.00000
Fe5 Fe   2 a 0.63141  0.00000 0.42566  1.00000
Fe6 Fe   2 a 0.07041  0.00000 0.70518  1.00000
N1  N    2 a 0.41330  0.00000 0.29214  1.00000
N2  N    2 a 0.27266  0.00000 0.84716  1.00000
N3  N    2 a -0.00004 0.00000 -0.00043 1.00000
 
