# CIF file
# This file was generated by FINDSYM
# Harold T. Stokes, Branton J. Campbell, Dorian M. Hatch
# Brigham Young University, Provo, Utah, USA
 
data_findsym-output
_audit_creation_method FINDSYM
 
_symmetry_space_group_name_H-M "P 1 m 1"
_symmetry_Int_Tables_number 6
 
_cell_length_a    3.51023
_cell_length_b    3.75171
_cell_length_c    7.24672
_cell_angle_alpha 90.00000
_cell_angle_beta  101.99003
_cell_angle_gamma 90.00000
 
loop_
_space_group_symop_id
_space_group_symop_operation_xyz
1 x,y,z
2 x,-y,z
 
loop_
_atom_site_label
_atom_site_type_symbol
_atom_site_symmetry_multiplicity
_atom_site_Wyckoff_label
_atom_site_fract_x
_atom_site_fract_y
_atom_site_fract_z
_atom_site_occupancy
Fe1 Fe   1 a 0.28667 0.00000 0.41729 1.00000
Fe2 Fe   1 b 0.46116 0.50000 0.67425 1.00000
Fe3 Fe   1 a 0.02603 0.00000 0.75312 1.00000
Fe4 Fe   1 b 0.73376 0.50000 0.33703 1.00000
Fe5 Fe   1 a 0.53430 0.00000 0.08514 1.00000
Fe6 Fe   1 b 0.03623 0.50000 0.00477 1.00000
N1  N    1 a 0.48223 0.00000 0.66928 1.00000
N2  N    1 a 0.74897 0.00000 0.33567 1.00000
N3  N    1 a 0.00412 0.00000 0.00037 1.00000
 
