# CIF file
# This file was generated by FINDSYM
# Harold T. Stokes, Branton J. Campbell, Dorian M. Hatch
# Brigham Young University, Provo, Utah, USA
 
data_findsym-output
_audit_creation_method FINDSYM
 
_symmetry_space_group_name_H-M "P 1"
_symmetry_Int_Tables_number 1
 
_cell_length_a    4.79155
_cell_length_b    6.28621
_cell_length_c    8.51998
_cell_angle_alpha 78.90966
_cell_angle_beta  75.70773
_cell_angle_gamma 78.14552
 
loop_
_space_group_symop_id
_space_group_symop_operation_xyz
1 x,y,z
 
loop_
_atom_site_label
_atom_site_type_symbol
_atom_site_symmetry_multiplicity
_atom_site_Wyckoff_label
_atom_site_fract_x
_atom_site_fract_y
_atom_site_fract_z
_atom_site_occupancy
Co1  Co   1 a 0.40805  -0.04903 0.74847  1.00000
Co2  Co   1 a -0.00016 0.00001  -0.00049 1.00000
Fe1  Fe   1 a 0.20424  0.84892  0.24923  1.00000
Fe2  Fe   1 a 0.00750  0.75693  0.74861  1.00000
Fe3  Fe   1 a 0.81363  0.41443  -0.00771 1.00000
Fe4  Fe   1 a 0.59149  0.04798  0.25559  1.00000
Fe5  Fe   1 a 0.40130  0.70495  0.49966  1.00000
Fe6  Fe   1 a 0.79770  0.66560  0.24976  1.00000
Fe7  Fe   1 a 0.60871  0.79625  -0.00226 1.00000
Fe8  Fe   1 a 0.81661  0.15267  0.74205  1.00000
Fe9  Fe   1 a 0.20099  0.61340  -0.00132 1.00000
Fe10 Fe   1 a 0.20912  0.10031  0.50641  1.00000
Fe11 Fe   1 a 0.00076  0.50933  0.49986  1.00000
Fe12 Fe   1 a 0.59101  0.30798  0.50722  1.00000
Fe13 Fe   1 a 0.19795  0.36054  0.74361  1.00000
Fe14 Fe   1 a 0.40484  0.46145  0.24908  1.00000
Fe15 Fe   1 a 0.60490  0.55854  0.74623  1.00000
Fe16 Fe   1 a 0.80093  -0.09727 0.50333  1.00000
Ta1  Ta   1 a -0.01722 0.25818  0.26093  1.00000
Ta2  Ta   1 a 0.42271  0.20277  -0.01262 1.00000
 
