# CIF file
# This file was generated by FINDSYM
# Harold T. Stokes, Branton J. Campbell, Dorian M. Hatch
# Brigham Young University, Provo, Utah, USA
 
data_findsym-output
_audit_creation_method FINDSYM
 
_symmetry_space_group_name_H-M "P 1"
_symmetry_Int_Tables_number 1
 
_cell_length_a    4.77758
_cell_length_b    6.30297
_cell_length_c    8.53694
_cell_angle_alpha 79.36720
_cell_angle_beta  75.13320
_cell_angle_gamma 78.31962
 
loop_
_space_group_symop_id
_space_group_symop_operation_xyz
1 x,y,z
 
loop_
_atom_site_label
_atom_site_type_symbol
_atom_site_symmetry_multiplicity
_atom_site_Wyckoff_label
_atom_site_fract_x
_atom_site_fract_y
_atom_site_fract_z
_atom_site_occupancy
Co1  Co   1 a 0.00394  0.50405  0.50259  1.00000
Co2  Co   1 a -0.00029 0.00007  0.00006  1.00000
Fe1  Fe   1 a 0.00565  0.75550  0.75301  1.00000
Fe2  Fe   1 a 0.79769  0.40908  0.79549  1.00000
Fe3  Fe   1 a 0.61367  0.05388  0.84560  1.00000
Fe4  Fe   1 a 0.60771  0.80456  0.60414  1.00000
Fe5  Fe   1 a 0.81427  -0.09974 0.31089  1.00000
Fe6  Fe   1 a 0.20059  0.59592  0.20718  1.00000
Fe7  Fe   1 a 0.40998  0.71422  0.89928  1.00000
Fe8  Fe   1 a 0.40587  0.20548  0.40576  1.00000
Fe9  Fe   1 a 0.80573  0.15556  0.55333  1.00000
Fe10 Fe   1 a 0.80512  0.65419  0.05345  1.00000
Fe11 Fe   1 a -0.00253 0.25498  0.26043  1.00000
Fe12 Fe   1 a 0.20250  0.85142  0.46323  1.00000
Fe13 Fe   1 a 0.61118  0.30877  0.10689  1.00000
Fe14 Fe   1 a 0.40669  0.45796  0.64330  1.00000
Fe15 Fe   1 a 0.60645  0.55420  0.35394  1.00000
Fe16 Fe   1 a 0.20407  0.10474  0.70130  1.00000
Ta1  Ta   1 a 0.20428  0.35938  -0.05202 1.00000
Ta2  Ta   1 a 0.40743  -0.04975 0.15859  1.00000
 
