# CIF file
# This file was generated by FINDSYM
# Harold T. Stokes, Branton J. Campbell, Dorian M. Hatch
# Brigham Young University, Provo, Utah, USA
 
data_findsym-output
_audit_creation_method FINDSYM
 
_symmetry_space_group_name_H-M "P 1"
_symmetry_Int_Tables_number 1
 
_cell_length_a    5.77187
_cell_length_b    6.44955
_cell_length_c    7.07102
_cell_angle_alpha 89.94263
_cell_angle_beta  65.95381
_cell_angle_gamma 89.78374
 
loop_
_space_group_symop_id
_space_group_symop_operation_xyz
1 x,y,z
 
loop_
_atom_site_label
_atom_site_type_symbol
_atom_site_symmetry_multiplicity
_atom_site_Wyckoff_label
_atom_site_fract_x
_atom_site_fract_y
_atom_site_fract_z
_atom_site_occupancy
Co1  Co   1 a 0.29684  0.30092  -0.09288 1.00000
Co2  Co   1 a 0.00008  0.00031  -0.00002 1.00000
Fe1  Fe   1 a -0.09971 0.41038  0.20323  1.00000
Fe2  Fe   1 a -0.08806 -0.08883 0.70172  1.00000
Fe3  Fe   1 a 0.60435  0.10550  0.30488  1.00000
Fe4  Fe   1 a 0.80968  0.29912  -0.09332 1.00000
Fe5  Fe   1 a 0.70749  0.70880  0.10909  1.00000
Fe6  Fe   1 a 0.69544  0.20527  0.61070  1.00000
Fe7  Fe   1 a 0.50171  0.50230  0.50000  1.00000
Fe8  Fe   1 a 0.51274  0.00619  -0.00171 1.00000
Fe9  Fe   1 a 0.79690  0.80048  0.40735  1.00000
Fe10 Fe   1 a 0.39804  -0.08962 0.70506  1.00000
Fe11 Fe   1 a 0.10456  0.60527  0.80446  1.00000
Fe12 Fe   1 a 0.41219  0.40973  0.20246  1.00000
Fe13 Fe   1 a 0.19484  0.70515  0.11042  1.00000
Fe14 Fe   1 a 0.20648  0.20907  0.61082  1.00000
Fe15 Fe   1 a 0.30935  0.80082  0.40518  1.00000
Fe16 Fe   1 a 0.01302  0.50516  0.49954  1.00000
Ta1  Ta   1 a 0.60392  0.60518  0.80465  1.00000
Ta2  Ta   1 a 0.10489  0.10513  0.30349  1.00000
 
