# CIF file
# This file was generated by FINDSYM
# Harold T. Stokes, Branton J. Campbell, Dorian M. Hatch
# Brigham Young University, Provo, Utah, USA
 
data_findsym-output
_audit_creation_method FINDSYM
 
_symmetry_space_group_name_H-M "P 1"
_symmetry_Int_Tables_number 1
 
_cell_length_a    4.79127
_cell_length_b    6.46395
_cell_length_c    8.52555
_cell_angle_alpha 67.74390
_cell_angle_beta  81.24041
_cell_angle_gamma 82.41842
 
loop_
_space_group_symop_id
_space_group_symop_operation_xyz
1 x,y,z
 
loop_
_atom_site_label
_atom_site_type_symbol
_atom_site_symmetry_multiplicity
_atom_site_Wyckoff_label
_atom_site_fract_x
_atom_site_fract_y
_atom_site_fract_z
_atom_site_occupancy
Co1  Co   1 a 0.25899 0.53847  0.05043  1.00000
Co2  Co   1 a 0.00017 0.00005  -0.00014 1.00000
Fe1  Fe   1 a 0.26148 0.73924  0.24344  1.00000
Fe2  Fe   1 a 0.25288 0.34185  0.84716  1.00000
Fe3  Fe   1 a 0.49562 0.09641  0.09258  1.00000
Fe4  Fe   1 a 0.48969 0.89615  0.89913  1.00000
Fe5  Fe   1 a 0.75364 0.63778  0.14190  1.00000
Fe6  Fe   1 a 0.24165 -0.05187 0.44782  1.00000
Fe7  Fe   1 a 0.00275 0.39314  0.39502  1.00000
Fe8  Fe   1 a 0.74607 0.43582  -0.05175 1.00000
Fe9  Fe   1 a 0.50009 0.29457  0.29536  1.00000
Fe10 Fe   1 a 0.00520 0.20247  0.19415  1.00000
Fe11 Fe   1 a 0.01020 0.58029  0.59719  1.00000
Fe12 Fe   1 a 0.50148 0.48627  0.49831  1.00000
Fe13 Fe   1 a 0.74149 0.05533  0.54613  1.00000
Fe14 Fe   1 a 0.51055 0.68867  0.69539  1.00000
Fe15 Fe   1 a 0.25133 0.14998  0.64441  1.00000
Fe16 Fe   1 a 0.74903 0.24289  0.74896  1.00000
Ta1  Ta   1 a 0.75139 0.84326  0.34708  1.00000
Ta2  Ta   1 a 0.00082 0.79341  0.79555  1.00000
 
