# CIF file
# This file was generated by FINDSYM
# Harold T. Stokes, Branton J. Campbell, Dorian M. Hatch
# Brigham Young University, Provo, Utah, USA
 
data_findsym-output
_audit_creation_method FINDSYM
 
_symmetry_space_group_name_H-M "P -1"
_symmetry_Int_Tables_number 2
 
_cell_length_a    4.72972
_cell_length_b    6.25022
_cell_length_c    6.25207
_cell_angle_alpha 99.88891
_cell_angle_beta  102.21342
_cell_angle_gamma 109.81653
 
loop_
_space_group_symop_id
_space_group_symop_operation_xyz
1 x,y,z
2 -x,-y,-z
 
loop_
_atom_site_label
_atom_site_type_symbol
_atom_site_symmetry_multiplicity
_atom_site_Wyckoff_label
_atom_site_fract_x
_atom_site_fract_y
_atom_site_fract_z
_atom_site_occupancy
Fe1 Fe   2 i 0.49860  0.24861  0.24722  1.00000
Fe2 Fe   2 i 0.35315  0.82548  0.09987  1.00000
Fe3 Fe   2 i -0.06601 0.53598  0.68049  1.00000
Fe4 Fe   2 i 0.06940  -0.03526 0.81926  1.00000
Fe5 Fe   2 i 0.21299  0.39444  -0.02806 1.00000
Fe6 Fe   2 i 0.77669  0.11242  0.53678  1.00000
Ge1 Ge   2 i 0.65033  0.68876  0.38602  1.00000
 
