# CIF file
# This file was generated by FINDSYM
# Harold T. Stokes, Branton J. Campbell, Dorian M. Hatch
# Brigham Young University, Provo, Utah, USA
 
data_findsym-output
_audit_creation_method FINDSYM
 
_symmetry_space_group_name_H-M "P -1"
_symmetry_Int_Tables_number 2
 
_cell_length_a    4.97251
_cell_length_b    6.24916
_cell_length_c    6.26438
_cell_angle_alpha 118.89420
_cell_angle_beta  98.34541
_cell_angle_gamma 96.46217
 
loop_
_space_group_symop_id
_space_group_symop_operation_xyz
1 x,y,z
2 -x,-y,-z
 
loop_
_atom_site_label
_atom_site_type_symbol
_atom_site_symmetry_multiplicity
_atom_site_Wyckoff_label
_atom_site_fract_x
_atom_site_fract_y
_atom_site_fract_z
_atom_site_occupancy
Fe1 Fe   2 i 0.02620 0.41851 0.27941 1.00000
Fe2 Fe   2 i 0.81317 0.85791 0.57209 1.00000
Fe3 Fe   2 i 0.25084 0.00396 0.00797 1.00000
Fe4 Fe   2 i 0.89443 0.71415 0.14362 1.00000
Fe5 Fe   2 i 0.52878 0.43536 0.28222 1.00000
Fe6 Fe   2 i 0.39299 0.71417 0.14167 1.00000
Ge1 Ge   2 i 0.30777 0.84546 0.57465 1.00000
 
