# CIF file
# This file was generated by FINDSYM
# Harold T. Stokes, Branton J. Campbell, Dorian M. Hatch
# Brigham Young University, Provo, Utah, USA
 
data_findsym-output
_audit_creation_method FINDSYM
 
_symmetry_space_group_name_H-M "P -1"
_symmetry_Int_Tables_number 2
 
_cell_length_a    4.74083
_cell_length_b    5.72429
_cell_length_c    7.00361
_cell_angle_alpha 65.92926
_cell_angle_beta  75.66304
_cell_angle_gamma 72.56578
 
loop_
_space_group_symop_id
_space_group_symop_operation_xyz
1 x,y,z
2 -x,-y,-z
 
loop_
_atom_site_label
_atom_site_type_symbol
_atom_site_symmetry_multiplicity
_atom_site_Wyckoff_label
_atom_site_fract_x
_atom_site_fract_y
_atom_site_fract_z
_atom_site_occupancy
Fe1 Fe   2 i 0.70495  0.60968 -0.07328 1.00000
Fe2 Fe   2 i 0.57847  0.03927 0.64126  1.00000
Fe3 Fe   2 i 0.85826  0.67947 0.21291  1.00000
Fe4 Fe   2 i 0.57507  0.53275 0.64020  1.00000
Fe5 Fe   2 i -0.00002 0.74405 0.50002  1.00000
Fe6 Fe   2 i 0.29246  0.88934 0.07355  1.00000
Ge1 Ge   2 i 0.14299  0.82102 0.78650  1.00000
 
