# CIF file
# This file was generated by FINDSYM
# Harold T. Stokes, Branton J. Campbell, Dorian M. Hatch
# Brigham Young University, Provo, Utah, USA
 
data_findsym-output
_audit_creation_method FINDSYM
 
_symmetry_space_group_name_H-M "P -1"
_symmetry_Int_Tables_number 2
 
_cell_length_a    4.74737
_cell_length_b    4.75611
_cell_length_c    7.44457
_cell_angle_alpha 80.09220
_cell_angle_beta  86.71128
_cell_angle_gamma 84.76641
 
loop_
_space_group_symop_id
_space_group_symop_operation_xyz
1 x,y,z
2 -x,-y,-z
 
loop_
_atom_site_label
_atom_site_type_symbol
_atom_site_symmetry_multiplicity
_atom_site_Wyckoff_label
_atom_site_fract_x
_atom_site_fract_y
_atom_site_fract_z
_atom_site_occupancy
Fe1 Fe   2 i 0.57201 0.79418 -0.07379 1.00000
Fe2 Fe   2 i 0.27824 0.14003 0.71255  1.00000
Fe3 Fe   1 a 0.00000 0.00000 0.00000  1.00000
Fe4 Fe   1 g 0.00000 0.50000 0.50000  1.00000
Fe5 Fe   2 i 0.14998 0.57265 0.85867  1.00000
Fe6 Fe   2 i 0.14247 0.07601 0.35775  1.00000
Fe7 Fe   2 i 0.42416 0.71922 0.56787  1.00000
Ge1 Ge   2 i 0.28980 0.64063 0.21438  1.00000
 
