# CIF file
# This file was generated by FINDSYM
# Harold T. Stokes, Branton J. Campbell, Dorian M. Hatch
# Brigham Young University, Provo, Utah, USA
 
data_findsym-output
_audit_creation_method FINDSYM
 
_symmetry_space_group_name_H-M "P 1 21/m 1"
_symmetry_Int_Tables_number 11
 
_cell_length_a    4.73908
_cell_length_b    4.03399
_cell_length_c    8.58513
_cell_angle_alpha 90.00000
_cell_angle_beta  95.72196
_cell_angle_gamma 90.00000
 
loop_
_space_group_symop_id
_space_group_symop_operation_xyz
1 x,y,z
2 -x,y+1/2,-z
3 -x,-y,-z
4 x,-y+1/2,z
 
loop_
_atom_site_label
_atom_site_type_symbol
_atom_site_symmetry_multiplicity
_atom_site_Wyckoff_label
_atom_site_fract_x
_atom_site_fract_y
_atom_site_fract_z
_atom_site_occupancy
Fe1 Fe   2 e 0.42753  0.25000 0.60656 1.00000
Fe2 Fe   2 e -0.00534 0.25000 0.74711 1.00000
Fe3 Fe   2 e 0.27762  0.25000 0.32313 1.00000
Fe4 Fe   2 e 0.85732  0.25000 0.46729 1.00000
Fe5 Fe   2 e 0.57796  0.25000 0.89074 1.00000
Fe6 Fe   2 e 0.15087  0.25000 0.03300 1.00000
Ge1 Ge   2 e 0.71462  0.25000 0.18014 1.00000
 
