# CIF file
# This file was generated by FINDSYM
# Harold T. Stokes, Branton J. Campbell, Dorian M. Hatch
# Brigham Young University, Provo, Utah, USA
 
data_findsym-output
_audit_creation_method FINDSYM
 
_symmetry_space_group_name_H-M "P 1 2/m 1"
_symmetry_Int_Tables_number 10
 
_cell_length_a    4.75756
_cell_length_b    4.02371
_cell_length_c    8.57203
_cell_angle_alpha 90.00000
_cell_angle_beta  95.29910
_cell_angle_gamma 90.00000
 
loop_
_space_group_symop_id
_space_group_symop_operation_xyz
1 x,y,z
2 -x,y,-z
3 -x,-y,-z
4 x,-y,z
 
loop_
_atom_site_label
_atom_site_type_symbol
_atom_site_symmetry_multiplicity
_atom_site_Wyckoff_label
_atom_site_fract_x
_atom_site_fract_y
_atom_site_fract_z
_atom_site_occupancy
Fe1 Fe   1 h 0.50000 0.50000 0.50000  1.00000
Fe2 Fe   2 m 0.21492 0.00000 0.42745  1.00000
Fe3 Fe   2 n 0.20537 0.50000 -0.07367 1.00000
Fe4 Fe   2 m 0.64985 0.00000 0.28826  1.00000
Fe5 Fe   2 m 0.06456 0.00000 0.14107  1.00000
Fe6 Fe   2 n 0.07679 0.50000 0.64053  1.00000
Fe7 Fe   1 d 0.50000 0.00000 0.00000  1.00000
Ge1 Ge   2 n 0.35691 0.50000 0.21218  1.00000
 
