# CIF file
# This file was generated by FINDSYM
# Harold T. Stokes, Branton J. Campbell, Dorian M. Hatch
# Brigham Young University, Provo, Utah, USA
 
data_findsym-output
_audit_creation_method FINDSYM
 
_symmetry_space_group_name_H-M "P 1"
_symmetry_Int_Tables_number 1
 
_cell_length_a    4.71754
_cell_length_b    6.34751
_cell_length_c    8.88725
_cell_angle_alpha 80.64194
_cell_angle_beta  74.61624
_cell_angle_gamma 79.41886
 
loop_
_space_group_symop_id
_space_group_symop_operation_xyz
1 x,y,z
 
loop_
_atom_site_label
_atom_site_type_symbol
_atom_site_symmetry_multiplicity
_atom_site_Wyckoff_label
_atom_site_fract_x
_atom_site_fract_y
_atom_site_fract_z
_atom_site_occupancy
Fe1  Fe   1 a -0.09632 0.50881  0.42826  1.00000
Fe2  Fe   1 a 0.38039  -0.06904 0.72791  1.00000
Fe3  Fe   1 a 0.66023  0.81220  0.26634  1.00000
Fe4  Fe   1 a 0.41297  0.12128  0.13936  1.00000
Fe5  Fe   1 a 0.76966  0.87327  0.49879  1.00000
Fe6  Fe   1 a 0.63135  0.24020  0.57590  1.00000
Fe7  Fe   1 a 0.70463  0.59096  0.72556  1.00000
Fe8  Fe   1 a 0.49640  0.47350  0.27725  1.00000
Fe9  Fe   1 a 0.16620  0.81582  0.26747  1.00000
Fe10 Fe   1 a 0.15062  0.60042  0.84950  1.00000
Fe11 Fe   1 a 0.72422  0.39458  -0.00652 1.00000
Fe12 Fe   1 a 0.46810  0.22596  0.85994  1.00000
Fe13 Fe   1 a 0.82947  0.15690  0.27805  1.00000
Fe14 Fe   1 a 0.55849  0.77753  -0.00430 1.00000
Fe15 Fe   1 a 0.88361  -0.07056 0.73248  1.00000
Fe16 Fe   1 a 0.04151  0.27773  0.72207  1.00000
Ta1  Ta   1 a 0.08834  0.49596  0.12894  1.00000
Ta2  Ta   1 a 0.29791  0.63044  0.54838  1.00000
Ta3  Ta   1 a 0.23944  0.12604  0.44398  1.00000
Ta4  Ta   1 a 0.00043  -0.00067 -0.00008 1.00000
 
