# CIF file
# This file was generated by FINDSYM
# Harold T. Stokes, Branton J. Campbell, Dorian M. Hatch
# Brigham Young University, Provo, Utah, USA
 
data_findsym-output
_audit_creation_method FINDSYM
 
_symmetry_space_group_name_H-M "P m m 2"
_symmetry_Int_Tables_number 25
 
_cell_length_a    4.09101
_cell_length_b    4.09738
_cell_length_c    14.96438
_cell_angle_alpha 90.00000
_cell_angle_beta  90.00000
_cell_angle_gamma 90.00000
 
loop_
_space_group_symop_id
_space_group_symop_operation_xyz
1 x,y,z
2 -x,-y,z
3 -x,y,z
4 x,-y,z
 
loop_
_atom_site_label
_atom_site_type_symbol
_atom_site_symmetry_multiplicity
_atom_site_Wyckoff_label
_atom_site_fract_x
_atom_site_fract_y
_atom_site_fract_z
_atom_site_occupancy
Fe1  Fe   1 a 0.00000 0.00000 0.60106  1.00000
Fe2  Fe   1 d 0.50000 0.50000 0.19362  1.00000
Fe3  Fe   1 d 0.50000 0.50000 0.39719  1.00000
Fe4  Fe   1 c 0.50000 0.00000 0.70306  1.00000
Fe5  Fe   1 b 0.00000 0.50000 0.10200  1.00000
Fe6  Fe   1 a 0.00000 0.00000 0.39754  1.00000
Fe7  Fe   1 c 0.50000 0.00000 0.50115  1.00000
Fe8  Fe   1 b 0.00000 0.50000 0.29473  1.00000
Fe9  Fe   1 c 0.50000 0.00000 0.10116  1.00000
Fe10 Fe   1 a 0.00000 0.00000 0.19485  1.00000
Fe11 Fe   1 b 0.00000 0.50000 0.89865  1.00000
Fe12 Fe   1 d 0.50000 0.50000 0.60110  1.00000
Fe13 Fe   1 a 0.00000 0.00000 0.80476  1.00000
Fe14 Fe   1 d 0.50000 0.50000 -0.00015 1.00000
Fe15 Fe   1 d 0.50000 0.50000 0.80618  1.00000
Fe16 Fe   1 c 0.50000 0.00000 0.89769  1.00000
Ta1  Ta   1 b 0.00000 0.50000 0.49664  1.00000
Ta2  Ta   1 c 0.50000 0.00000 0.29804  1.00000
Ta3  Ta   1 b 0.00000 0.50000 0.70337  1.00000
Ta4  Ta   1 a 0.00000 0.00000 0.00004  1.00000
 
