# CIF file
# This file was generated by FINDSYM
# Harold T. Stokes, Branton J. Campbell, Dorian M. Hatch
# Brigham Young University, Provo, Utah, USA
 
data_findsym-output
_audit_creation_method FINDSYM
 
_symmetry_space_group_name_H-M "P 1 2/c 1"
_symmetry_Int_Tables_number 13
 
_cell_length_a    4.75638
_cell_length_b    4.75788
_cell_length_c    11.27063
_cell_angle_alpha 90.00000
_cell_angle_beta  102.82216
_cell_angle_gamma 90.00000
 
loop_
_space_group_symop_id
_space_group_symop_operation_xyz
1 x,y,z
2 -x,y,-z+1/2
3 -x,-y,-z
4 x,-y,z+1/2
 
loop_
_atom_site_label
_atom_site_type_symbol
_atom_site_symmetry_multiplicity
_atom_site_Wyckoff_label
_atom_site_fract_x
_atom_site_fract_y
_atom_site_fract_z
_atom_site_occupancy
Fe1 Fe   4 g 0.62444 0.76849 0.05485 1.00000
Fe2 Fe   4 g 0.15880 0.04677 0.09557 1.00000
Fe3 Fe   4 g 0.83139 0.54798 0.41107 1.00000
Fe4 Fe   2 e 0.00000 0.78555 0.25000 1.00000
Fe5 Fe   2 f 0.50000 0.78451 0.25000 1.00000
Ta1 Ta   4 g 0.28825 0.71773 0.83505 1.00000
 
