# CIF file
# This file was generated by FINDSYM
# Harold T. Stokes, Branton J. Campbell, Dorian M. Hatch
# Brigham Young University, Provo, Utah, USA
 
data_findsym-output
_audit_creation_method FINDSYM
 
_symmetry_space_group_name_H-M "P -1"
_symmetry_Int_Tables_number 2
 
_cell_length_a    4.86913
_cell_length_b    6.41761
_cell_length_c    8.65909
_cell_angle_alpha 78.94022
_cell_angle_beta  75.05350
_cell_angle_gamma 77.25569
 
loop_
_space_group_symop_id
_space_group_symop_operation_xyz
1 x,y,z
2 -x,-y,-z
 
loop_
_atom_site_label
_atom_site_type_symbol
_atom_site_symmetry_multiplicity
_atom_site_Wyckoff_label
_atom_site_fract_x
_atom_site_fract_y
_atom_site_fract_z
_atom_site_occupancy
Fe1 Fe   2 i 0.19183  0.47670  0.87277 1.00000
Fe2 Fe   2 i 0.79882  0.26913  0.87822 1.00000
Fe3 Fe   2 i 0.60483  0.42836  0.62648 1.00000
Fe4 Fe   2 i 0.01125  0.63220  0.62161 1.00000
Fe5 Fe   2 i -0.00781 0.11984  0.12467 1.00000
Fe6 Fe   2 i 0.79337  0.02315  0.62685 1.00000
Fe7 Fe   2 i 0.60894  0.17762  0.37736 1.00000
Fe8 Fe   2 i 0.60226  -0.08271 0.12070 1.00000
Ta1 Ta   2 i 0.80029  0.77419  0.37435 1.00000
Ta2 Ta   2 i 0.39545  0.32068  0.13028 1.00000
 
