# CIF file
# This file was generated by FINDSYM
# Harold T. Stokes, Branton J. Campbell, Dorian M. Hatch
# Brigham Young University, Provo, Utah, USA
 
data_findsym-output
_audit_creation_method FINDSYM
 
_symmetry_space_group_name_H-M "P 1 2/m 1"
_symmetry_Int_Tables_number 10
 
_cell_length_a    7.30256
_cell_length_b    4.08098
_cell_length_c    8.72190
_cell_angle_alpha 90.00000
_cell_angle_beta  103.79886
_cell_angle_gamma 90.00000
 
loop_
_space_group_symop_id
_space_group_symop_operation_xyz
1 x,y,z
2 -x,y,-z
3 -x,-y,-z
4 x,-y,z
 
loop_
_atom_site_label
_atom_site_type_symbol
_atom_site_symmetry_multiplicity
_atom_site_Wyckoff_label
_atom_site_fract_x
_atom_site_fract_y
_atom_site_fract_z
_atom_site_occupancy
Fe1 Fe   2 n 0.89957 0.50000 0.19374 1.00000
Fe2 Fe   1 e 0.50000 0.50000 0.00000 1.00000
Fe3 Fe   2 m 0.10054 0.00000 0.30410 1.00000
Fe4 Fe   1 g 0.50000 0.00000 0.50000 1.00000
Fe5 Fe   2 m 0.38911 0.00000 0.19672 1.00000
Fe6 Fe   2 m 0.69227 0.00000 0.09856 1.00000
Fe7 Fe   2 n 0.20709 0.50000 0.10348 1.00000
Fe8 Fe   2 m 0.79618 0.00000 0.39779 1.00000
Fe9 Fe   2 n 0.29621 0.50000 0.39773 1.00000
Ta1 Ta   1 f 0.00000 0.50000 0.50000 1.00000
Ta2 Ta   2 n 0.40595 0.50000 0.70199 1.00000
Ta3 Ta   1 a 0.00000 0.00000 0.00000 1.00000
 
