# CIF file
# This file was generated by FINDSYM
# Harold T. Stokes, Branton J. Campbell, Dorian M. Hatch
# Brigham Young University, Provo, Utah, USA
 
data_findsym-output
_audit_creation_method FINDSYM
 
_symmetry_space_group_name_H-M "P 1 m 1"
_symmetry_Int_Tables_number 6
 
_cell_length_a    7.19405
_cell_length_b    4.12423
_cell_length_c    8.76477
_cell_angle_alpha 90.00000
_cell_angle_beta  105.43431
_cell_angle_gamma 90.00000
 
loop_
_space_group_symop_id
_space_group_symop_operation_xyz
1 x,y,z
2 x,-y,z
 
loop_
_atom_site_label
_atom_site_type_symbol
_atom_site_symmetry_multiplicity
_atom_site_Wyckoff_label
_atom_site_fract_x
_atom_site_fract_y
_atom_site_fract_z
_atom_site_occupancy
Fe1  Fe   1 b 0.79475  0.50000 -0.09366 1.00000
Fe2  Fe   1 b 0.00680  0.50000 0.51546  1.00000
Fe3  Fe   1 a 0.69278  0.00000 0.10655  1.00000
Fe4  Fe   1 a 0.48972  0.00000 0.49928  1.00000
Fe5  Fe   1 a 0.79693  0.00000 0.40683  1.00000
Fe6  Fe   1 a -0.09625 0.00000 0.70007  1.00000
Fe7  Fe   1 b 0.29687  0.50000 0.40620  1.00000
Fe8  Fe   1 a 0.59226  0.00000 0.79909  1.00000
Fe9  Fe   1 b 0.58780  0.50000 0.30406  1.00000
Fe10 Fe   1 b 0.19963  0.50000 0.11187  1.00000
Fe11 Fe   1 a 0.29400  0.00000 0.89370  1.00000
Fe12 Fe   1 a 0.19848  0.00000 0.60282  1.00000
Fe13 Fe   1 b 0.38784  0.50000 0.69788  1.00000
Fe14 Fe   1 a 0.39589  0.00000 0.20704  1.00000
Fe15 Fe   1 a 0.10646  0.00000 0.31264  1.00000
Fe16 Fe   1 b 0.09786  0.50000 0.80290  1.00000
Ta1  Ta   1 b 0.48845  0.50000 -0.00015 1.00000
Ta2  Ta   1 b 0.89899  0.50000 0.21971  1.00000
Ta3  Ta   1 b 0.69583  0.50000 0.60440  1.00000
Ta4  Ta   1 a 0.00018  0.00000 -0.00008 1.00000
 
