# CIF file
# This file was generated by FINDSYM
# Harold T. Stokes, Branton J. Campbell, Dorian M. Hatch
# Brigham Young University, Provo, Utah, USA
 
data_findsym-output
_audit_creation_method FINDSYM
 
_symmetry_space_group_name_H-M "P 1 2/m 1"
_symmetry_Int_Tables_number 10
 
_cell_length_a    7.32606
_cell_length_b    4.05992
_cell_length_c    8.67197
_cell_angle_alpha 90.00000
_cell_angle_beta  103.12348
_cell_angle_gamma 90.00000
 
loop_
_space_group_symop_id
_space_group_symop_operation_xyz
1 x,y,z
2 -x,y,-z
3 -x,-y,-z
4 x,-y,z
 
loop_
_atom_site_label
_atom_site_type_symbol
_atom_site_symmetry_multiplicity
_atom_site_Wyckoff_label
_atom_site_fract_x
_atom_site_fract_y
_atom_site_fract_z
_atom_site_occupancy
Fe1  Fe   2 m 0.59352 0.00000 0.79453 1.00000
Fe2  Fe   2 m 0.20505 0.00000 0.60228 1.00000
Fe3  Fe   2 n 0.79682 0.50000 0.89668 1.00000
Fe4  Fe   2 n 0.09615 0.50000 0.79938 1.00000
Fe5  Fe   2 n 0.39929 0.50000 0.69820 1.00000
Fe6  Fe   2 n 0.68836 0.50000 0.59339 1.00000
Fe7  Fe   1 e 0.50000 0.50000 0.00000 1.00000
Fe8  Fe   1 a 0.00000 0.00000 0.00000 1.00000
Fe9  Fe   1 f 0.00000 0.50000 0.50000 1.00000
Fe10 Fe   1 g 0.50000 0.00000 0.50000 1.00000
Ta1  Ta   2 m 0.70184 0.00000 0.09836 1.00000
Ta2  Ta   2 m 0.89275 0.00000 0.69500 1.00000
 
