# CIF file
# This file was generated by FINDSYM
# Harold T. Stokes, Branton J. Campbell, Dorian M. Hatch
# Brigham Young University, Provo, Utah, USA
 
data_findsym-output
_audit_creation_method FINDSYM
 
_symmetry_space_group_name_H-M "C 1 m 1"
_symmetry_Int_Tables_number 8
 
_cell_length_a    8.25946
_cell_length_b    5.91258
_cell_length_c    10.54066
_cell_angle_alpha 90.00000
_cell_angle_beta  102.35048
_cell_angle_gamma 90.00000
 
loop_
_space_group_symop_id
_space_group_symop_operation_xyz
1 x,y,z
2 x,-y,z
3 x+1/2,y+1/2,z
4 x+1/2,-y+1/2,z
 
loop_
_atom_site_label
_atom_site_type_symbol
_atom_site_symmetry_multiplicity
_atom_site_Wyckoff_label
_atom_site_fract_x
_atom_site_fract_y
_atom_site_fract_z
_atom_site_occupancy
Fe1  Fe   2 a 0.60255  0.00000 0.41388  1.00000
Fe2  Fe   4 b 0.65163  0.24385 0.61149  1.00000
Fe3  Fe   4 b 0.45127  0.25024 0.79567  1.00000
Fe4  Fe   2 a 0.70313  0.00000 0.80165  1.00000
Fe5  Fe   4 b 0.75697  0.25570 0.00230  1.00000
Fe6  Fe   2 a 0.40068  0.00000 0.60633  1.00000
Fe7  Fe   2 a 0.80774  0.00000 0.20804  1.00000
Fe8  Fe   4 b 0.56223  0.24686 0.20795  1.00000
Fe9  Fe   4 b 0.84877  0.24571 0.41276  1.00000
Fe10 Fe   2 a 0.20217  0.00000 0.80088  1.00000
Fe11 Fe   2 a -0.09885 0.00000 0.60744  1.00000
Ta1  Ta   2 a 0.09844  0.00000 0.41238  1.00000
Ta2  Ta   2 a 0.31520  0.00000 0.21250  1.00000
Ta3  Ta   2 a 0.51179  0.00000 -0.00227 1.00000
Ta4  Ta   2 a -0.00046 0.00000 -0.00019 1.00000
 
