# CIF file
# This file was generated by FINDSYM
# Harold T. Stokes, Branton J. Campbell, Dorian M. Hatch
# Brigham Young University, Provo, Utah, USA
 
data_findsym-output
_audit_creation_method FINDSYM
 
_symmetry_space_group_name_H-M "C 1 m 1"
_symmetry_Int_Tables_number 8
 
_cell_length_a    12.14460
_cell_length_b    4.12674
_cell_length_c    10.14994
_cell_angle_alpha 90.00000
_cell_angle_beta  97.55589
_cell_angle_gamma 90.00000
 
loop_
_space_group_symop_id
_space_group_symop_operation_xyz
1 x,y,z
2 x,-y,z
3 x+1/2,y+1/2,z
4 x+1/2,-y+1/2,z
 
loop_
_atom_site_label
_atom_site_type_symbol
_atom_site_symmetry_multiplicity
_atom_site_Wyckoff_label
_atom_site_fract_x
_atom_site_fract_y
_atom_site_fract_z
_atom_site_occupancy
Fe1  Fe   2 a 0.79922 0.00000 0.80084  1.00000
Fe2  Fe   2 a 0.61032 0.00000 0.60806  1.00000
Fe3  Fe   2 a 0.21076 0.00000 0.44671  1.00000
Fe4  Fe   2 a 0.79653 0.00000 0.04323  1.00000
Fe5  Fe   2 a 0.60391 0.00000 0.85282  1.00000
Fe6  Fe   2 a 0.39620 0.00000 -0.09676 1.00000
Fe7  Fe   2 a 0.60353 0.00000 0.10339  1.00000
Fe8  Fe   2 a 0.40143 0.00000 0.14819  1.00000
Fe9  Fe   2 a 0.20032 0.00000 0.19306  1.00000
Fe10 Fe   2 a 0.20298 0.00000 -0.05153 1.00000
Fe11 Fe   2 a 0.00684 0.00000 0.24917  1.00000
Fe12 Fe   2 a 0.19986 0.00000 0.70355  1.00000
Fe13 Fe   2 a 0.80153 0.00000 0.54983  1.00000
Fe14 Fe   2 a 0.00618 0.00000 0.75341  1.00000
Fe15 Fe   2 a 0.40774 0.00000 0.39755  1.00000
Fe16 Fe   2 a 0.60251 0.00000 0.34999  1.00000
Ta1  Ta   2 a 0.40108 0.00000 0.65608  1.00000
Ta2  Ta   2 a 0.80256 0.00000 0.29508  1.00000
Ta3  Ta   2 a 0.01274 0.00000 0.49923  1.00000
Ta4  Ta   2 a 0.00016 0.00000 0.00010  1.00000
 
