# CIF file
# This file was generated by FINDSYM
# Harold T. Stokes, Branton J. Campbell, Dorian M. Hatch
# Brigham Young University, Provo, Utah, USA
 
data_findsym-output
_audit_creation_method FINDSYM
 
_symmetry_space_group_name_H-M "P 1 m 1"
_symmetry_Int_Tables_number 6
 
_cell_length_a    9.12614
_cell_length_b    3.02365
_cell_length_c    9.12647
_cell_angle_alpha 90.00000
_cell_angle_beta  90.03330
_cell_angle_gamma 90.00000
 
loop_
_space_group_symop_id
_space_group_symop_operation_xyz
1 x,y,z
2 x,-y,z
 
loop_
_atom_site_label
_atom_site_type_symbol
_atom_site_symmetry_multiplicity
_atom_site_Wyckoff_label
_atom_site_fract_x
_atom_site_fract_y
_atom_site_fract_z
_atom_site_occupancy
Fe1  Fe   1 a 0.49286  0.00000 0.49594  1.00000
Fe2  Fe   1 a 0.09729  0.00000 0.69931  1.00000
Fe3  Fe   1 b 0.58476  0.50000 0.69331  1.00000
Fe4  Fe   1 b 0.09374  0.50000 0.20234  1.00000
Fe5  Fe   1 b -0.00415 0.50000 0.49915  1.00000
Fe6  Fe   1 b 0.29779  0.50000 0.60602  1.00000
Fe7  Fe   1 b 0.68869  0.50000 0.38832  1.00000
Fe8  Fe   1 b 0.79285  0.50000 0.10704  1.00000
Fe9  Fe   1 a 0.89193  0.00000 0.29890  1.00000
Fe10 Fe   1 a 0.59110  0.00000 0.19834  1.00000
Fe11 Fe   1 b 0.48026  0.50000 0.00453  1.00000
Fe12 Fe   1 b 0.20045  0.50000 0.89495  1.00000
Fe13 Fe   1 a 0.29350  0.00000 0.09969  1.00000
Fe14 Fe   1 b 0.40020  0.50000 0.29530  1.00000
Fe15 Fe   1 b 0.89338  0.50000 0.79742  1.00000
Fe16 Fe   1 a 0.39167  0.00000 0.79930  1.00000
Ta1  Ta   1 a 0.68156  0.00000 -0.09616 1.00000
Ta2  Ta   1 a 0.79175  0.00000 0.59032  1.00000
Ta3  Ta   1 a 0.19849  0.00000 0.40097  1.00000
Ta4  Ta   1 a -0.00001 0.00000 0.00018  1.00000
 
