# CIF file
# This file was generated by FINDSYM
# Harold T. Stokes, Branton J. Campbell, Dorian M. Hatch
# Brigham Young University, Provo, Utah, USA
 
data_findsym-output
_audit_creation_method FINDSYM
 
_symmetry_space_group_name_H-M "P -1"
_symmetry_Int_Tables_number 2
 
_cell_length_a    4.81404
_cell_length_b    6.43358
_cell_length_c    8.38250
_cell_angle_alpha 77.12567
_cell_angle_beta  84.80891
_cell_angle_gamma 81.52758
 
loop_
_space_group_symop_id
_space_group_symop_operation_xyz
1 x,y,z
2 -x,-y,-z
 
loop_
_atom_site_label
_atom_site_type_symbol
_atom_site_symmetry_multiplicity
_atom_site_Wyckoff_label
_atom_site_fract_x
_atom_site_fract_y
_atom_site_fract_z
_atom_site_occupancy
Fe1 Fe   1 b 0.00000  0.00000 0.50000 1.00000
Fe2 Fe   1 a 0.00000  0.00000 0.00000 1.00000
Fe3 Fe   2 i -0.08950 0.39391 0.42741 1.00000
Fe4 Fe   2 i 0.59038  0.49495 0.71198 1.00000
Fe5 Fe   2 i 0.06485  0.80825 0.28005 1.00000
Fe6 Fe   2 i 0.32662  0.66139 0.00379 1.00000
Fe7 Fe   2 i 0.86666  0.57742 0.13883 1.00000
Fe8 Fe   2 i 0.45202  0.10203 0.86846 1.00000
Fe9 Fe   2 i 0.27565  0.84688 0.72566 1.00000
Ta1 Ta   2 i 0.56084  0.78101 0.44675 1.00000
Ta2 Ta   2 i 0.21066  0.21977 0.18342 1.00000
 
